<?xml version="1.0" encoding="UTF-8"?>

<!-- generated on 4/1/2017 11:14:02 PM by Netedit Version 0.27.1
<?xml version="1.0" encoding="UTF-8"?>

<configuration xmlns:xsi="http://www.w3.org/2001/XMLSchema-instance" xsi:noNamespaceSchemaLocation="http://sumo.dlr.de/xsd/netedit.exeConfiguration.xsd">

    <input>
        <sumo-net-file value="C:\Users\Q.%20Tang\Dropbox\Phd\Implementation\Test%20network\SUMO\5Intersection6OD.net.xml"/>
    </input>

    <output>
        <output-file value="C:\Users\Q.%20Tang\Dropbox\Phd\Implementation\Test%20network\SUMO\5Intersection6OD.net.xml"/>
    </output>

    <processing>
        <no-turnarounds value="true"/>
        <offset.disable-normalization value="true"/>
        <lefthand value="false"/>
        <junctions.corner-detail value="0"/>
    </processing>

</configuration>
-->

<net version="0.27" xmlns:xsi="http://www.w3.org/2001/XMLSchema-instance" xsi:noNamespaceSchemaLocation="http://sumo.dlr.de/xsd/net_file.xsd">

    <location netOffset="0.00,0.00" convBoundary="-11.55,-34.16,211.73,130.76" origBoundary="-10000000000.00,-10000000000.00,10000000000.00,10000000000.00" projParameter="!"/>

    <edge id=":gneJ0_0" function="internal">
        <lane id=":gneJ0_0_0" index="0" speed="13.89" length="9.50" shape="-13.20,88.26 -13.20,78.76"/>
    </edge>
    <edge id=":gneJ0_1" function="internal">
        <lane id=":gneJ0_1_0" index="0" speed="13.89" length="5.28" shape="-13.20,88.26 -12.80,85.46 -11.60,83.46 -11.50,83.40"/>
    </edge>
    <edge id=":gneJ0_6" function="internal">
        <lane id=":gneJ0_6_0" index="0" speed="13.89" length="5.04" shape="-11.50,83.40 -9.60,82.26 -6.80,81.86"/>
    </edge>
    <edge id=":gneJ0_2" function="internal">
        <lane id=":gneJ0_2_0" index="0" speed="13.89" length="5.00" shape="-6.80,85.16 -8.16,85.35 -9.13,85.94 -9.71,86.90 -9.90,88.26"/>
    </edge>
    <edge id=":gneJ0_3" function="internal">
        <lane id=":gneJ0_3_0" index="0" speed="13.89" length="10.32" shape="-6.80,85.16 -9.60,84.76 -11.60,83.56 -12.80,81.56 -13.20,78.76"/>
    </edge>
    <edge id=":gneJ0_4" function="internal">
        <lane id=":gneJ0_4_0" index="0" speed="13.89" length="5.00" shape="-9.90,78.76 -9.71,80.12 -9.12,81.08 -8.16,81.67 -6.80,81.86"/>
    </edge>
    <edge id=":gneJ0_5" function="internal">
        <lane id=":gneJ0_5_0" index="0" speed="13.89" length="9.50" shape="-9.90,78.76 -9.90,88.26"/>
    </edge>
    <edge id=":gneJ1_0" function="internal">
        <lane id=":gneJ1_0_0" index="0" speed="13.89" length="9.54" shape="-13.20,9.51 -13.16,-0.03"/>
    </edge>
    <edge id=":gneJ1_1" function="internal">
        <lane id=":gneJ1_1_0" index="0" speed="13.89" length="5.30" shape="-13.20,9.51 -12.80,6.71 -11.59,4.71 -11.48,4.64"/>
    </edge>
    <edge id=":gneJ1_6" function="internal">
        <lane id=":gneJ1_6_0" index="0" speed="13.89" length="5.05" shape="-11.48,4.64 -9.59,3.51 -6.77,3.11"/>
    </edge>
    <edge id=":gneJ1_2" function="internal">
        <lane id=":gneJ1_2_0" index="0" speed="13.89" length="5.02" shape="-6.77,6.41 -8.14,6.60 -9.12,7.19 -9.70,8.15 -9.90,9.51"/>
    </edge>
    <edge id=":gneJ1_3" function="internal">
        <lane id=":gneJ1_3_0" index="0" speed="13.89" length="10.36" shape="-6.77,6.41 -9.59,6.01 -11.59,4.80 -12.78,2.79 -13.16,-0.03"/>
    </edge>
    <edge id=":gneJ1_4" function="internal">
        <lane id=":gneJ1_4_0" index="0" speed="13.89" length="5.01" shape="-9.86,-0.00 -9.68,1.36 -9.10,2.33 -8.13,2.92 -6.77,3.11"/>
    </edge>
    <edge id=":gneJ1_5" function="internal">
        <lane id=":gneJ1_5_0" index="0" speed="13.89" length="9.51" shape="-9.86,-0.00 -9.90,9.51"/>
    </edge>
    <edge id=":gneJ4_0" function="internal">
        <lane id=":gneJ4_0_0" index="0" speed="13.89" length="7.85" shape="69.56,88.26 69.16,86.90 67.96,85.94 65.96,85.35 63.16,85.16"/>
    </edge>
    <edge id=":gneJ4_1" function="internal">
        <lane id=":gneJ4_1_0" index="0" speed="13.89" length="9.50" shape="69.56,88.26 69.56,78.76"/>
    </edge>
    <edge id=":gneJ4_2" function="internal">
        <lane id=":gneJ4_2_0" index="0" speed="13.89" length="6.54" shape="69.56,88.26 70.17,85.46 71.98,83.46 72.89,83.10"/>
    </edge>
    <edge id=":gneJ4_12" function="internal">
        <lane id=":gneJ4_12_0" index="0" speed="13.89" length="6.55" shape="72.89,83.10 75.02,82.26 79.26,81.86"/>
    </edge>
    <edge id=":gneJ4_3" function="internal">
        <lane id=":gneJ4_3_0" index="0" speed="13.89" length="7.85" shape="79.26,85.16 76.46,85.35 74.46,85.94 73.26,86.90 72.86,88.26"/>
    </edge>
    <edge id=":gneJ4_4" function="internal">
        <lane id=":gneJ4_4_0" index="0" speed="13.89" length="16.10" shape="79.26,85.16 63.16,85.16"/>
    </edge>
    <edge id=":gneJ4_5" function="internal">
        <lane id=":gneJ4_5_0" index="0" speed="13.89" length="7.66" shape="79.26,85.16 75.02,84.76 71.98,83.56 71.89,83.46"/>
    </edge>
    <edge id=":gneJ4_13" function="internal">
        <lane id=":gneJ4_13_0" index="0" speed="13.89" length="5.43" shape="71.89,83.46 70.17,81.56 69.56,78.76"/>
    </edge>
    <edge id=":gneJ4_6" function="internal">
        <lane id=":gneJ4_6_0" index="0" speed="13.89" length="5.00" shape="76.16,78.76 76.35,80.12 76.94,81.08 77.90,81.67 79.26,81.86"/>
    </edge>
    <edge id=":gneJ4_7" function="internal">
        <lane id=":gneJ4_7_0" index="0" speed="13.89" length="10.23" shape="76.16,78.76 75.64,81.66 74.51,83.52 73.38,85.37 72.86,88.26"/>
    </edge>
    <edge id=":gneJ4_8" function="internal">
        <lane id=":gneJ4_8_0" index="0" speed="13.89" length="4.49" shape="72.86,78.76 72.25,81.56 71.16,82.76"/>
    </edge>
    <edge id=":gneJ4_14" function="internal">
        <lane id=":gneJ4_14_0" index="0" speed="13.89" length="8.60" shape="71.16,82.76 70.44,83.56 67.40,84.76 63.16,85.16"/>
    </edge>
    <edge id=":gneJ4_9" function="internal">
        <lane id=":gneJ4_9_0" index="0" speed="13.89" length="5.00" shape="63.16,81.86 64.52,81.67 65.49,81.08 66.07,80.12 66.26,78.76"/>
    </edge>
    <edge id=":gneJ4_10" function="internal">
        <lane id=":gneJ4_10_0" index="0" speed="13.89" length="16.10" shape="63.16,81.86 79.26,81.86"/>
    </edge>
    <edge id=":gneJ4_11" function="internal">
        <lane id=":gneJ4_11_0" index="0" speed="13.89" length="7.66" shape="63.16,81.86 67.40,82.26 70.44,83.46 70.53,83.56"/>
    </edge>
    <edge id=":gneJ4_15" function="internal">
        <lane id=":gneJ4_15_0" index="0" speed="13.89" length="5.43" shape="70.53,83.56 72.25,85.46 72.86,88.26"/>
    </edge>
    <edge id=":gneJ6_0" function="internal">
        <lane id=":gneJ6_0_0" index="0" speed="13.89" length="10.54" shape="66.26,15.74 66.07,11.66 65.49,8.74 64.52,6.99 63.16,6.41"/>
    </edge>
    <edge id=":gneJ6_1" function="internal">
        <lane id=":gneJ6_1_0" index="0" speed="13.89" length="16.15" shape="66.26,15.74 66.78,10.60 67.91,6.74 69.04,3.45 69.56,0.01"/>
    </edge>
    <edge id=":gneJ6_2" function="internal">
        <lane id=":gneJ6_2_0" index="0" speed="13.89" length="7.13" shape="69.56,15.74 70.34,10.06 71.26,9.02"/>
    </edge>
    <edge id=":gneJ6_12" function="internal">
        <lane id=":gneJ6_12_0" index="0" speed="13.89" length="12.52" shape="71.26,9.02 72.67,7.43 76.56,7.87 82.01,11.38"/>
    </edge>
    <edge id=":gneJ6_3" function="internal">
        <lane id=":gneJ6_3_0" index="0" speed="13.89" length="6.25" shape="79.93,13.94 78.28,12.91 77.10,12.87 76.40,13.81 76.16,15.74"/>
    </edge>
    <edge id=":gneJ6_4" function="internal">
        <lane id=":gneJ6_4_0" index="0" speed="13.89" length="18.62" shape="79.93,13.94 76.38,11.44 71.96,9.00 67.34,7.14 63.16,6.41"/>
    </edge>
    <edge id=":gneJ6_5" function="internal">
        <lane id=":gneJ6_5_0" index="0" speed="13.89" length="8.05" shape="79.93,13.94 75.39,9.92 74.08,8.44"/>
    </edge>
    <edge id=":gneJ6_13" function="internal">
        <lane id=":gneJ6_13_0" index="0" speed="13.89" length="9.76" shape="74.08,8.44 72.15,6.26 70.21,2.96 69.56,0.01"/>
    </edge>
    <edge id=":gneJ6_6" function="internal">
        <lane id=":gneJ6_6_0" index="0" speed="13.89" length="14.90" shape="72.86,0.01 73.43,2.21 75.15,4.83 78.01,7.89 82.01,11.38"/>
    </edge>
    <edge id=":gneJ6_7" function="internal">
        <lane id=":gneJ6_7_0" index="0" speed="13.89" length="15.73" shape="72.86,0.01 72.86,15.74"/>
    </edge>
    <edge id=":gneJ6_8" function="internal">
        <lane id=":gneJ6_8_0" index="0" speed="13.89" length="5.78" shape="72.86,0.01 72.25,2.81 70.44,4.81 70.24,4.89"/>
    </edge>
    <edge id=":gneJ6_14" function="internal">
        <lane id=":gneJ6_14_0" index="0" speed="13.89" length="7.31" shape="70.24,4.89 67.40,6.01 63.16,6.41"/>
    </edge>
    <edge id=":gneJ6_9" function="internal">
        <lane id=":gneJ6_9_0" index="0" speed="13.89" length="7.85" shape="63.16,3.11 65.96,2.92 67.96,2.34 69.16,1.37 69.56,0.01"/>
    </edge>
    <edge id=":gneJ6_10" function="internal">
        <lane id=":gneJ6_10_0" index="0" speed="13.89" length="20.80" shape="63.16,3.11 67.67,3.96 73.00,6.06 78.13,8.76 82.01,11.38"/>
    </edge>
    <edge id=":gneJ6_11" function="internal">
        <lane id=":gneJ6_11_0" index="0" speed="13.89" length="8.69" shape="63.16,3.11 67.40,3.90 70.44,6.27 70.66,6.75"/>
    </edge>
    <edge id=":gneJ6_15" function="internal">
        <lane id=":gneJ6_15_0" index="0" speed="13.89" length="9.38" shape="70.66,6.75 72.25,10.22 72.86,15.74"/>
    </edge>
    <edge id=":gneJ8_0" function="internal">
        <lane id=":gneJ8_0_0" index="0" speed="13.89" length="12.50" shape="166.84,91.54 166.28,88.75 164.58,86.75 161.76,85.56 157.81,85.16"/>
    </edge>
    <edge id=":gneJ8_1" function="internal">
        <lane id=":gneJ8_1_0" index="0" speed="13.89" length="16.02" shape="166.84,91.54 166.36,87.98 164.92,84.55 162.51,81.25 159.15,78.07"/>
    </edge>
    <edge id=":gneJ8_2" function="internal">
        <lane id=":gneJ8_2_0" index="0" speed="13.89" length="5.12" shape="166.84,91.54 167.24,87.31 167.56,86.49"/>
    </edge>
    <edge id=":gneJ8_12" function="internal">
        <lane id=":gneJ8_12_0" index="0" speed="13.89" length="7.92" shape="167.56,86.49 168.43,84.28 170.41,82.45 173.18,81.83"/>
    </edge>
    <edge id=":gneJ8_3" function="internal">
        <lane id=":gneJ8_3_0" index="0" speed="13.89" length="4.99" shape="173.23,88.43 171.88,88.63 170.91,89.21 170.33,90.18 170.14,91.54"/>
    </edge>
    <edge id=":gneJ8_4" function="internal">
        <lane id=":gneJ8_4_0" index="0" speed="13.89" length="15.84" shape="173.23,88.43 168.20,87.94 164.44,86.81 161.22,85.68 157.81,85.16"/>
    </edge>
    <edge id=":gneJ8_5" function="internal">
        <lane id=":gneJ8_5_0" index="0" speed="13.89" length="16.22" shape="173.20,85.13 168.24,84.49 164.69,82.80 161.88,80.51 159.15,78.07"/>
    </edge>
    <edge id=":gneJ8_6" function="internal">
        <lane id=":gneJ8_6_0" index="0" speed="13.89" length="13.83" shape="161.23,75.51 164.03,77.83 166.79,79.86 169.75,81.30 173.18,81.83"/>
    </edge>
    <edge id=":gneJ8_7" function="internal">
        <lane id=":gneJ8_7_0" index="0" speed="13.89" length="18.96" shape="161.23,75.51 165.13,79.22 167.91,83.12 169.58,87.23 170.14,91.54"/>
    </edge>
    <edge id=":gneJ8_8" function="internal">
        <lane id=":gneJ8_8_0" index="0" speed="13.89" length="9.74" shape="161.23,75.51 165.48,79.73 166.33,82.75 165.84,83.10"/>
    </edge>
    <edge id=":gneJ8_13" function="internal">
        <lane id=":gneJ8_13_0" index="0" speed="13.89" length="8.52" shape="165.84,83.10 163.78,84.56 157.81,85.16"/>
    </edge>
    <edge id=":gneJ8_9" function="internal">
        <lane id=":gneJ8_9_0" index="0" speed="13.89" length="7.17" shape="157.81,81.86 160.15,81.62 161.15,80.91 160.82,79.73 159.15,78.07"/>
    </edge>
    <edge id=":gneJ8_10" function="internal">
        <lane id=":gneJ8_10_0" index="0" speed="13.89" length="15.37" shape="157.81,81.86 173.18,81.83"/>
    </edge>
    <edge id=":gneJ8_11" function="internal">
        <lane id=":gneJ8_11_0" index="0" speed="13.89" length="12.33" shape="157.81,81.86 163.20,82.46 167.06,84.28 168.66,86.38"/>
    </edge>
    <edge id=":gneJ8_14" function="internal">
        <lane id=":gneJ8_14_0" index="0" speed="13.89" length="5.47" shape="168.66,86.38 169.37,87.30 170.14,91.54"/>
    </edge>

    <edge id="gneE0" from="gneJ0" to="gneJ1" priority="1" length="300.00">
        <lane id="gneE0_0" index="0" speed="13.89" length="300.00" shape="-13.20,78.76 -13.20,9.51"/>
    </edge>
    <edge id="gneE1" from="gneJ1" to="gneJ0" priority="1" length="300.00">
        <lane id="gneE1_0" index="0" speed="13.89" length="300.00" shape="-9.90,9.51 -9.90,78.76"/>
    </edge>
    <edge id="gneE10" from="gneJ4" to="gneJ6" priority="1" length="300.00">
        <lane id="gneE10_0" index="0" speed="13.89" length="300.00" shape="66.26,78.76 66.26,15.74"/>
        <lane id="gneE10_1" index="1" speed="13.89" length="300.00" shape="69.56,78.76 69.56,15.74"/>
    </edge>
    <edge id="gneE11" from="gneJ6" to="gneJ4" priority="1" length="300.00">
        <lane id="gneE11_0" index="0" speed="13.89" length="300.00" shape="76.16,15.74 76.16,78.76"/>
        <lane id="gneE11_1" index="1" speed="13.89" length="300.00" shape="72.86,15.74 72.86,78.76"/>
    </edge>
    <edge id="gneE12" from="gneJ6" to="gneJ1" priority="1" length="300.00">
        <lane id="gneE12_0" index="0" speed="13.89" length="300.00" shape="63.16,6.41 -6.77,6.41"/>
    </edge>
    <edge id="gneE13" from="gneJ6" to="gneJ7" priority="1" length="50.00">
        <lane id="gneE13_0" index="0" speed="13.89" length="50.00" shape="69.56,0.01 69.56,-33.85"/>
    </edge>
    <edge id="gneE14" from="gneJ7" to="gneJ6" priority="1" length="50.00">
        <lane id="gneE14_0" index="0" speed="13.89" length="50.00" shape="72.86,-33.85 72.86,0.01"/>
    </edge>
    <edge id="gneE15" from="gneJ4" to="gneJ8" priority="1" length="400.00">
        <lane id="gneE15_0" index="0" speed="13.89" length="400.00" shape="79.26,81.86 157.81,81.86"/>
    </edge>
    <edge id="gneE16" from="gneJ8" to="gneJ4" priority="1" length="400.00">
        <lane id="gneE16_0" index="0" speed="13.89" length="400.00" shape="157.81,85.16 79.26,85.16"/>
    </edge>
    <edge id="gneE17" from="gneJ8" to="gneJ6" priority="1" length="500.00">
        <lane id="gneE17_0" index="0" speed="13.89" length="500.00" shape="159.15,78.07 79.93,13.94"/>
    </edge>
    <edge id="gneE18" from="gneJ6" to="gneJ8" priority="1" length="500.00">
        <lane id="gneE18_0" index="0" speed="13.89" length="500.00" shape="82.01,11.38 161.23,75.51"/>
    </edge>
    <edge id="gneE19" from="gneJ8" to="gneJ9" priority="1" length="50.00">
        <lane id="gneE19_0" index="0" speed="13.89" length="50.00" shape="170.14,91.54 170.14,129.21"/>
    </edge>
    <edge id="gneE2" from="gneJ1" to="gneJ2" priority="1" length="50.00">
        <lane id="gneE2_0" index="0" speed="13.89" length="50.00" shape="-13.16,-0.03 -12.89,-34.17"/>
    </edge>
    <edge id="gneE20" from="gneJ9" to="gneJ8" priority="1" length="50.00">
        <lane id="gneE20_0" index="0" speed="13.89" length="50.00" shape="166.84,129.21 166.84,91.54"/>
    </edge>
    <edge id="gneE21" from="gneJ8" to="gneJ10" priority="1" length="50.00">
        <lane id="gneE21_0" index="0" speed="13.89" length="50.00" shape="173.18,81.83 211.72,81.55"/>
    </edge>
    <edge id="gneE22" from="gneJ10" to="gneJ8" priority="1" length="50.00">
        <lane id="gneE22_0" index="0" speed="13.89" length="50.00" shape="211.77,88.15 173.23,88.43"/>
        <lane id="gneE22_1" index="1" speed="13.89" length="50.00" shape="211.74,84.85 173.20,85.13"/>
    </edge>
    <edge id="gneE23" from="gneJ1" to="gneJ6" priority="1">
        <lane id="gneE23_0" index="0" speed="13.89" length="69.93" shape="-6.77,3.11 63.16,3.11"/>
    </edge>
    <edge id="gneE3" from="gneJ2" to="gneJ1" priority="1" length="50.00">
        <lane id="gneE3_0" index="0" speed="13.89" length="50.00" shape="-9.59,-34.15 -9.86,-0.00"/>
    </edge>
    <edge id="gneE4" from="gneJ3" to="gneJ0" priority="1" length="50.00">
        <lane id="gneE4_0" index="0" speed="13.89" length="50.00" shape="-13.20,128.29 -13.20,88.26"/>
    </edge>
    <edge id="gneE5" from="gneJ0" to="gneJ3" priority="1" length="50.00">
        <lane id="gneE5_0" index="0" speed="13.89" length="50.00" shape="-9.90,88.26 -9.90,128.29"/>
    </edge>
    <edge id="gneE6" from="gneJ0" to="gneJ4" priority="1" length="300.00">
        <lane id="gneE6_0" index="0" speed="13.89" length="300.00" shape="-6.80,81.86 63.16,81.86"/>
    </edge>
    <edge id="gneE7" from="gneJ4" to="gneJ0" priority="1" length="300.00">
        <lane id="gneE7_0" index="0" speed="13.89" length="300.00" shape="63.16,85.16 -6.80,85.16"/>
    </edge>
    <edge id="gneE8" from="gneJ4" to="gneJ5" priority="1" length="50.00">
        <lane id="gneE8_0" index="0" speed="13.89" length="50.00" shape="72.86,88.26 72.86,130.76"/>
    </edge>
    <edge id="gneE9" from="gneJ5" to="gneJ4" priority="1" length="50.00">
        <lane id="gneE9_0" index="0" speed="13.89" length="50.00" shape="69.56,130.76 69.56,88.26"/>
    </edge>

    <tlLogic id="gneJ0" type="static" programID="0" offset="0">
        <phase duration="36" state="GgrrGG"/>
        <phase duration="4" state="ygrryy"/>
        <phase duration="6" state="rGrrrr"/>
        <phase duration="4" state="ryrrrr"/>
        <phase duration="36" state="rrGGGr"/>
        <phase duration="4" state="rryyyr"/>
    </tlLogic>
    <tlLogic id="gneJ1" type="static" programID="0" offset="0">
        <phase duration="36" state="GgrrGG"/>
        <phase duration="4" state="ygrryy"/>
        <phase duration="6" state="rGrrrr"/>
        <phase duration="4" state="ryrrrr"/>
        <phase duration="36" state="rrGGGr"/>
        <phase duration="4" state="rryyyr"/>
    </tlLogic>
    <tlLogic id="gneJ4" type="static" programID="0" offset="0">
        <phase duration="31" state="GGgrrrGGgrrr"/>
        <phase duration="4" state="yygrrryygrrr"/>
        <phase duration="6" state="rrGrrrrrGrrr"/>
        <phase duration="4" state="rryrrrrryrrr"/>
        <phase duration="31" state="rrrGGgrrrGGg"/>
        <phase duration="4" state="rrryygrrryyg"/>
        <phase duration="6" state="rrrrrGrrrrrG"/>
        <phase duration="4" state="rrrrryrrrrry"/>
    </tlLogic>
    <tlLogic id="gneJ6" type="static" programID="0" offset="0">
        <phase duration="31" state="GGgrrrGGgrrr"/>
        <phase duration="4" state="yygrrryygrrr"/>
        <phase duration="6" state="rrGrrrrrGrrr"/>
        <phase duration="4" state="rryrrrrryrrr"/>
        <phase duration="31" state="rrrGGgrrrGGg"/>
        <phase duration="4" state="rrryygrrryyg"/>
        <phase duration="6" state="rrrrrGrrrrrG"/>
        <phase duration="4" state="rrrrryrrrrry"/>
    </tlLogic>
    <tlLogic id="gneJ8" type="static" programID="0" offset="0">
        <phase duration="31" state="rrrGGgrrrGGg"/>
        <phase duration="4" state="rrryygrrryyg"/>
        <phase duration="6" state="rrrrrGrrrrrG"/>
        <phase duration="4" state="rrrrryrrrrry"/>
        <phase duration="31" state="GGgrrrGGgrrr"/>
        <phase duration="4" state="yygrrryygrrr"/>
        <phase duration="6" state="rrGrrrrrGrrr"/>
        <phase duration="4" state="rryrrrrryrrr"/>
    </tlLogic>

    <junction id="gneJ0" type="traffic_light" x="-11.55" y="83.51" incLanes="gneE4_0 gneE7_0 gneE1_0" intLanes=":gneJ0_0_0 :gneJ0_6_0 :gneJ0_2_0 :gneJ0_3_0 :gneJ0_4_0 :gneJ0_5_0" shape="-14.80,88.26 -8.30,88.26 -6.80,86.76 -6.80,80.26 -8.30,78.76 -14.80,78.76">
        <request index="0" response="000000" foes="001000" cont="0"/>
        <request index="1" response="110000" foes="111000" cont="1"/>
        <request index="2" response="100000" foes="100000" cont="0"/>
        <request index="3" response="100011" foes="100011" cont="0"/>
        <request index="4" response="000000" foes="000010" cont="0"/>
        <request index="5" response="000000" foes="001110" cont="0"/>
    </junction>
    <junction id="gneJ1" type="traffic_light" x="-11.55" y="4.76" incLanes="gneE0_0 gneE12_0 gneE3_0" intLanes=":gneJ1_0_0 :gneJ1_6_0 :gneJ1_2_0 :gneJ1_3_0 :gneJ1_4_0 :gneJ1_5_0" shape="-14.80,9.51 -8.30,9.51 -6.77,8.01 -6.77,1.51 -8.26,0.01 -14.76,-0.04">
        <request index="0" response="000000" foes="001000" cont="0"/>
        <request index="1" response="110000" foes="111000" cont="1"/>
        <request index="2" response="100000" foes="100000" cont="0"/>
        <request index="3" response="100011" foes="100011" cont="0"/>
        <request index="4" response="000000" foes="000010" cont="0"/>
        <request index="5" response="000000" foes="001110" cont="0"/>
    </junction>
    <junction id="gneJ10" type="dead_end" x="211.73" y="83.20" incLanes="gneE21_0" intLanes="" shape="211.73,83.25 211.78,89.75 211.71,79.95 211.73,83.15"/>
    <junction id="gneJ2" type="dead_end" x="-11.24" y="-34.16" incLanes="gneE2_0" intLanes="" shape="-11.19,-34.16 -7.99,-34.13 -14.49,-34.19 -11.29,-34.16"/>
    <junction id="gneJ3" type="dead_end" x="-11.55" y="128.29" incLanes="gneE5_0" intLanes="" shape="-11.60,128.29 -14.80,128.29 -8.30,128.29 -11.50,128.29"/>
    <junction id="gneJ4" type="traffic_light" x="71.21" y="83.51" incLanes="gneE9_0 gneE16_0 gneE11_0 gneE11_1 gneE6_0" intLanes=":gneJ4_0_0 :gneJ4_1_0 :gneJ4_12_0 :gneJ4_3_0 :gneJ4_4_0 :gneJ4_13_0 :gneJ4_6_0 :gneJ4_7_0 :gneJ4_14_0 :gneJ4_9_0 :gneJ4_10_0 :gneJ4_15_0" shape="67.96,88.26 74.46,88.26 79.26,86.76 79.26,80.26 77.76,78.76 64.66,78.76 63.16,80.26 63.16,86.76">
        <request index="0" response="000000000000" foes="000100010000" cont="0"/>
        <request index="1" response="000000000000" foes="111100110000" cont="0"/>
        <request index="2" response="000011000000" foes="110011110000" cont="1"/>
        <request index="3" response="000010000000" foes="100010000000" cont="0"/>
        <request index="4" response="000110000111" foes="100110000111" cont="0"/>
        <request index="5" response="011110000110" foes="011110000110" cont="1"/>
        <request index="6" response="000000000000" foes="010000000100" cont="0"/>
        <request index="7" response="000000000000" foes="110000111100" cont="0"/>
        <request index="8" response="000000000011" foes="110000110011" cont="1"/>
        <request index="9" response="000000000010" foes="000000100010" cont="0"/>
        <request index="10" response="000111000110" foes="000111100110" cont="0"/>
        <request index="11" response="000110011110" foes="000110011110" cont="1"/>
    </junction>
    <junction id="gneJ5" type="dead_end" x="71.21" y="130.76" incLanes="gneE8_0" intLanes="" shape="71.16,130.76 67.96,130.76 74.46,130.76 71.26,130.76"/>
    <junction id="gneJ6" type="traffic_light" x="71.21" y="4.76" incLanes="gneE10_0 gneE10_1 gneE17_0 gneE14_0 gneE23_0" intLanes=":gneJ6_0_0 :gneJ6_1_0 :gneJ6_12_0 :gneJ6_3_0 :gneJ6_4_0 :gneJ6_13_0 :gneJ6_6_0 :gneJ6_7_0 :gneJ6_14_0 :gneJ6_9_0 :gneJ6_10_0 :gneJ6_15_0" shape="64.66,15.74 77.76,15.74 78.93,15.19 83.02,10.14 74.46,0.01 67.96,0.01 63.16,1.51 63.16,8.01">
        <request index="0" response="000000000000" foes="000100010000" cont="0"/>
        <request index="1" response="000000000000" foes="111100110000" cont="0"/>
        <request index="2" response="000011000000" foes="110011110000" cont="1"/>
        <request index="3" response="000010000000" foes="100010000000" cont="0"/>
        <request index="4" response="000110000111" foes="100110000111" cont="0"/>
        <request index="5" response="011110000110" foes="011110000110" cont="1"/>
        <request index="6" response="000000000000" foes="010000000100" cont="0"/>
        <request index="7" response="000000000000" foes="110000111100" cont="0"/>
        <request index="8" response="000000000011" foes="110000110011" cont="1"/>
        <request index="9" response="000000000010" foes="000000100010" cont="0"/>
        <request index="10" response="000111000110" foes="000111100110" cont="0"/>
        <request index="11" response="000110011110" foes="000110011110" cont="1"/>
    </junction>
    <junction id="gneJ7" type="dead_end" x="71.21" y="-33.85" incLanes="gneE13_0" intLanes="" shape="71.26,-33.85 74.46,-33.85 67.96,-33.85 71.16,-33.85"/>
    <junction id="gneJ8" type="traffic_light" x="168.49" y="83.51" incLanes="gneE20_0 gneE22_0 gneE22_1 gneE18_0 gneE15_0" intLanes=":gneJ8_0_0 :gneJ8_1_0 :gneJ8_12_0 :gneJ8_3_0 :gneJ8_4_0 :gneJ8_5_0 :gneJ8_6_0 :gneJ8_7_0 :gneJ8_13_0 :gneJ8_9_0 :gneJ8_10_0 :gneJ8_14_0" shape="165.24,91.54 171.74,91.54 173.24,90.03 173.17,80.23 162.23,74.26 158.14,79.32 157.81,80.26 157.81,86.76">
        <request index="0" response="000000010000" foes="000100010000" cont="0"/>
        <request index="1" response="111000110000" foes="111100110000" cont="0"/>
        <request index="2" response="110011110000" foes="110011110000" cont="1"/>
        <request index="3" response="000000000000" foes="100010000000" cont="0"/>
        <request index="4" response="000000000000" foes="100110000111" cont="0"/>
        <request index="5" response="011000000000" foes="011110000110" cont="0"/>
        <request index="6" response="010000000000" foes="010000000100" cont="0"/>
        <request index="7" response="110000111000" foes="110000111100" cont="0"/>
        <request index="8" response="110000110011" foes="110000110011" cont="1"/>
        <request index="9" response="000000000000" foes="000000100010" cont="0"/>
        <request index="10" response="000000000000" foes="000111100110" cont="0"/>
        <request index="11" response="000000011000" foes="000110011110" cont="1"/>
    </junction>
    <junction id="gneJ9" type="dead_end" x="168.49" y="129.21" incLanes="gneE19_0" intLanes="" shape="168.44,129.21 165.24,129.21 171.74,129.21 168.54,129.21"/>

    <junction id=":gneJ0_6_0" type="internal" x="-11.50" y="83.40" incLanes=":gneJ0_1_0 gneE1_0" intLanes=":gneJ0_3_0 :gneJ0_4_0 :gneJ0_5_0"/>
    <junction id=":gneJ1_6_0" type="internal" x="-11.48" y="4.64" incLanes=":gneJ1_1_0 gneE3_0" intLanes=":gneJ1_3_0 :gneJ1_4_0 :gneJ1_5_0"/>
    <junction id=":gneJ4_12_0" type="internal" x="72.89" y="83.10" incLanes=":gneJ4_2_0 gneE11_0" intLanes=":gneJ4_4_0 :gneJ4_5_0 :gneJ4_6_0 :gneJ4_7_0 :gneJ4_10_0 :gneJ4_11_0"/>
    <junction id=":gneJ4_13_0" type="internal" x="71.89" y="83.46" incLanes=":gneJ4_5_0 gneE6_0" intLanes=":gneJ4_1_0 :gneJ4_2_0 :gneJ4_7_0 :gneJ4_8_0 :gneJ4_9_0 :gneJ4_10_0"/>
    <junction id=":gneJ4_14_0" type="internal" x="71.16" y="82.76" incLanes=":gneJ4_8_0 gneE9_0" intLanes=":gneJ4_0_0 :gneJ4_1_0 :gneJ4_4_0 :gneJ4_5_0 :gneJ4_10_0 :gneJ4_11_0"/>
    <junction id=":gneJ4_15_0" type="internal" x="70.53" y="83.56" incLanes=":gneJ4_11_0 gneE16_0" intLanes=":gneJ4_1_0 :gneJ4_2_0 :gneJ4_3_0 :gneJ4_4_0 :gneJ4_7_0 :gneJ4_8_0"/>
    <junction id=":gneJ6_12_0" type="internal" x="71.26" y="9.02" incLanes=":gneJ6_2_0 gneE14_0" intLanes=":gneJ6_4_0 :gneJ6_5_0 :gneJ6_6_0 :gneJ6_7_0 :gneJ6_10_0 :gneJ6_11_0"/>
    <junction id=":gneJ6_13_0" type="internal" x="74.08" y="8.44" incLanes=":gneJ6_5_0 gneE23_0" intLanes=":gneJ6_1_0 :gneJ6_2_0 :gneJ6_7_0 :gneJ6_8_0 :gneJ6_9_0 :gneJ6_10_0"/>
    <junction id=":gneJ6_14_0" type="internal" x="70.24" y="4.89" incLanes=":gneJ6_8_0 gneE10_0" intLanes=":gneJ6_0_0 :gneJ6_1_0 :gneJ6_4_0 :gneJ6_5_0 :gneJ6_10_0 :gneJ6_11_0"/>
    <junction id=":gneJ6_15_0" type="internal" x="70.66" y="6.75" incLanes=":gneJ6_11_0 gneE17_0" intLanes=":gneJ6_1_0 :gneJ6_2_0 :gneJ6_3_0 :gneJ6_4_0 :gneJ6_7_0 :gneJ6_8_0"/>
    <junction id=":gneJ8_12_0" type="internal" x="167.56" y="86.49" incLanes=":gneJ8_2_0 gneE18_0" intLanes=":gneJ8_4_0 :gneJ8_5_0 :gneJ8_6_0 :gneJ8_7_0 :gneJ8_10_0 :gneJ8_11_0"/>
    <junction id=":gneJ8_13_0" type="internal" x="165.84" y="83.10" incLanes=":gneJ8_8_0 gneE20_0" intLanes=":gneJ8_0_0 :gneJ8_1_0 :gneJ8_4_0 :gneJ8_5_0 :gneJ8_10_0 :gneJ8_11_0"/>
    <junction id=":gneJ8_14_0" type="internal" x="168.66" y="86.38" incLanes=":gneJ8_11_0 gneE22_0" intLanes=":gneJ8_1_0 :gneJ8_2_0 :gneJ8_3_0 :gneJ8_4_0 :gneJ8_7_0 :gneJ8_8_0"/>

    <connection from="gneE0" to="gneE2" fromLane="0" toLane="0" via=":gneJ1_0_0" tl="gneJ1" linkIndex="0" dir="s" state="o"/>
    <connection from="gneE0" to="gneE23" fromLane="0" toLane="0" via=":gneJ1_1_0" tl="gneJ1" linkIndex="1" dir="l" state="o"/>
    <connection from="gneE1" to="gneE6" fromLane="0" toLane="0" via=":gneJ0_4_0" tl="gneJ0" linkIndex="4" dir="r" state="o"/>
    <connection from="gneE1" to="gneE5" fromLane="0" toLane="0" via=":gneJ0_5_0" tl="gneJ0" linkIndex="5" dir="s" state="o"/>
    <connection from="gneE10" to="gneE12" fromLane="0" toLane="0" via=":gneJ6_0_0" tl="gneJ6" linkIndex="0" dir="r" state="o"/>
    <connection from="gneE10" to="gneE13" fromLane="0" toLane="0" via=":gneJ6_1_0" tl="gneJ6" linkIndex="1" dir="s" state="o"/>
    <connection from="gneE10" to="gneE18" fromLane="1" toLane="0" via=":gneJ6_2_0" tl="gneJ6" linkIndex="2" dir="l" state="o"/>
    <connection from="gneE11" to="gneE15" fromLane="0" toLane="0" via=":gneJ4_6_0" tl="gneJ4" linkIndex="6" dir="r" state="o"/>
    <connection from="gneE11" to="gneE8" fromLane="0" toLane="0" via=":gneJ4_7_0" tl="gneJ4" linkIndex="7" dir="s" state="o"/>
    <connection from="gneE11" to="gneE7" fromLane="1" toLane="0" via=":gneJ4_8_0" tl="gneJ4" linkIndex="8" dir="l" state="o"/>
    <connection from="gneE12" to="gneE1" fromLane="0" toLane="0" via=":gneJ1_2_0" tl="gneJ1" linkIndex="2" dir="r" state="o"/>
    <connection from="gneE12" to="gneE2" fromLane="0" toLane="0" via=":gneJ1_3_0" tl="gneJ1" linkIndex="3" dir="l" state="o"/>