<?xml version="1.0" encoding="UTF-8"?>

<!-- generated on 9/2/2016 10:28:47 AM by Netedit Version 0.27.1
<?xml version="1.0" encoding="UTF-8"?>

<configuration xmlns:xsi="http://www.w3.org/2001/XMLSchema-instance" xsi:noNamespaceSchemaLocation="http://sumo.dlr.de/xsd/netedit.exeConfiguration.xsd">

    <output>
        <output-file value="C:\Users\Q.%20Tang\Dropbox\Phd\Implementation\Test%20network\SUMO\fiveIntersectionsFiveOD.net.xml"/>
    </output>

    <processing>
        <no-turnarounds value="true"/>
        <offset.disable-normalization value="true"/>
    </processing>

</configuration>
-->

<net version="0.27" xmlns:xsi="http://www.w3.org/2001/XMLSchema-instance" xsi:noNamespaceSchemaLocation="http://sumo.dlr.de/xsd/net_file.xsd">

    <location netOffset="0.00,0.00" convBoundary="-53.83,-112.12,191.98,93.42" origBoundary="10000000000.00,10000000000.00,-10000000000.00,-10000000000.00" projParameter="!"/>

    <edge id=":gneJ1_0" function="internal">
        <lane id=":gneJ1_0_0" index="0" speed="13.89" length="16.03" shape="13.57,98.12 -2.45,98.14"/>
        <lane id=":gneJ1_0_1" index="1" speed="13.89" length="16.03" shape="13.58,94.82 -2.47,94.84"/>
    </edge>
    <edge id=":gneJ1_2" function="internal">
        <lane id=":gneJ1_2_0" index="0" speed="13.89" length="6.36" shape="13.58,94.82 9.35,94.20 7.56,93.13"/>
    </edge>
    <edge id=":gneJ1_8" function="internal">
        <lane id=":gneJ1_8_0" index="0" speed="13.89" length="9.25" shape="7.56,93.13 6.33,92.38 4.51,89.35 3.89,85.12"/>
    </edge>
    <edge id=":gneJ1_3" function="internal">
        <lane id=":gneJ1_3_0" index="0" speed="13.89" length="5.01" shape="10.49,85.10 10.69,86.46 11.27,87.44 12.24,88.02 13.59,88.22"/>
    </edge>
    <edge id=":gneJ1_4" function="internal">
        <lane id=":gneJ1_4_0" index="0" speed="13.89" length="15.63" shape="7.19,85.11 6.60,89.35 4.79,92.38 1.77,94.21 -2.47,94.84"/>
    </edge>
    <edge id=":gneJ1_5" function="internal">
        <lane id=":gneJ1_5_0" index="0" speed="13.89" length="5.00" shape="-2.50,88.24 -1.14,88.04 -0.18,87.45 0.40,86.48 0.59,85.13"/>
    </edge>
    <edge id=":gneJ1_6" function="internal">
        <lane id=":gneJ1_6_0" index="0" speed="13.89" length="16.08" shape="-2.50,88.24 13.59,88.22"/>
        <lane id=":gneJ1_6_1" index="1" speed="13.89" length="16.08" shape="-2.48,91.54 13.59,91.52"/>
    </edge>
    <edge id=":gneJ2_0" function="internal">
        <lane id=":gneJ2_0_0" index="0" speed="13.89" length="16.12" shape="134.66,98.37 118.53,98.35"/>
        <lane id=":gneJ2_0_1" index="1" speed="13.89" length="16.12" shape="134.66,95.07 118.54,95.05"/>
    </edge>
    <edge id=":gneJ2_2" function="internal">
        <lane id=":gneJ2_2_0" index="0" speed="13.89" length="6.42" shape="134.66,95.07 130.41,94.46 128.58,93.36"/>
    </edge>
    <edge id=":gneJ2_8" function="internal">
        <lane id=":gneJ2_8_0" index="0" speed="13.89" length="9.23" shape="128.58,93.36 127.38,92.64 125.56,89.61 124.96,85.36"/>
    </edge>
    <edge id=":gneJ2_3" function="internal">
        <lane id=":gneJ2_3_0" index="0" speed="13.89" length="5.01" shape="131.56,85.36 131.75,86.72 132.33,87.69 133.30,88.28 134.66,88.47"/>
    </edge>
    <edge id=":gneJ2_4" function="internal">
        <lane id=":gneJ2_4_0" index="0" speed="13.89" length="15.66" shape="128.26,85.36 127.65,89.61 125.83,92.64 122.79,94.45 118.54,95.05"/>
    </edge>
    <edge id=":gneJ2_5" function="internal">
        <lane id=":gneJ2_5_0" index="0" speed="13.89" length="5.00" shape="118.55,88.45 119.91,88.26 120.88,87.68 121.46,86.71 121.66,85.36"/>
    </edge>
    <edge id=":gneJ2_6" function="internal">
        <lane id=":gneJ2_6_0" index="0" speed="13.89" length="16.11" shape="118.55,88.45 134.66,88.47"/>
        <lane id=":gneJ2_6_1" index="1" speed="13.89" length="16.11" shape="118.55,91.75 134.66,91.77"/>
    </edge>
    <edge id=":gneJ4_0" function="internal">
        <lane id=":gneJ4_0_0" index="0" speed="13.89" length="5.07" shape="0.34,-9.38 0.14,-10.74 -0.45,-11.72 -1.44,-12.31 -2.82,-12.51"/>
    </edge>
    <edge id=":gneJ4_1" function="internal">
        <lane id=":gneJ4_1_0" index="0" speed="13.89" length="16.14" shape="0.34,-9.38 0.28,-25.51"/>
        <lane id=":gneJ4_1_1" index="1" speed="13.89" length="16.14" shape="3.64,-9.38 3.58,-25.53"/>
    </edge>
    <edge id=":gneJ4_3" function="internal">
        <lane id=":gneJ4_3_0" index="0" speed="13.89" length="6.40" shape="3.64,-9.38 4.24,-13.64 5.32,-15.44"/>
    </edge>
    <edge id=":gneJ4_16" function="internal">
        <lane id=":gneJ4_16_0" index="0" speed="13.89" length="9.27" shape="5.32,-15.44 6.05,-16.68 9.09,-18.50 13.34,-19.11"/>
    </edge>
    <edge id=":gneJ4_4" function="internal">
        <lane id=":gneJ4_4_0" index="0" speed="13.89" length="5.00" shape="13.34,-12.51 11.98,-12.31 11.01,-11.73 10.43,-10.76 10.24,-9.40"/>
    </edge>
    <edge id=":gneJ4_5" function="internal">
        <lane id=":gneJ4_5_0" index="0" speed="13.89" length="16.15" shape="13.34,-12.51 -2.82,-12.51"/>
        <lane id=":gneJ4_5_1" index="1" speed="13.89" length="16.15" shape="13.34,-15.81 -2.82,-15.81"/>
    </edge>
    <edge id=":gneJ4_7" function="internal">
        <lane id=":gneJ4_7_0" index="0" speed="13.89" length="6.42" shape="13.34,-15.81 9.09,-16.41 7.26,-17.51"/>
    </edge>
    <edge id=":gneJ4_17" function="internal">
        <lane id=":gneJ4_17_0" index="0" speed="13.89" length="9.28" shape="7.26,-17.51 6.04,-18.24 4.21,-21.28 3.58,-25.53"/>
    </edge>
    <edge id=":gneJ4_8" function="internal">
        <lane id=":gneJ4_8_0" index="0" speed="13.89" length="5.09" shape="10.18,-25.57 10.38,-24.19 10.97,-23.20 11.96,-22.60 13.34,-22.41"/>
    </edge>
    <edge id=":gneJ4_9" function="internal">
        <lane id=":gneJ4_9_0" index="0" speed="13.89" length="16.16" shape="10.18,-25.57 10.24,-9.40"/>
        <lane id=":gneJ4_9_1" index="1" speed="13.89" length="16.16" shape="6.88,-25.55 6.94,-9.39"/>
    </edge>
    <edge id=":gneJ4_11" function="internal">
        <lane id=":gneJ4_11_0" index="0" speed="13.89" length="6.44" shape="6.88,-25.55 6.29,-21.29 5.20,-19.45"/>
    </edge>
    <edge id=":gneJ4_18" function="internal">
        <lane id=":gneJ4_18_0" index="0" speed="13.89" length="9.26" shape="5.20,-19.45 4.48,-18.24 1.44,-16.41 -2.82,-15.81"/>
    </edge>
    <edge id=":gneJ4_12" function="internal">
        <lane id=":gneJ4_12_0" index="0" speed="13.89" length="5.01" shape="-2.82,-22.41 -1.46,-22.60 -0.49,-23.18 0.09,-24.15 0.28,-25.51"/>
    </edge>
    <edge id=":gneJ4_13" function="internal">
        <lane id=":gneJ4_13_0" index="0" speed="13.89" length="16.15" shape="-2.82,-22.41 13.34,-22.41"/>
        <lane id=":gneJ4_13_1" index="1" speed="13.89" length="16.15" shape="-2.82,-19.11 13.34,-19.11"/>
    </edge>
    <edge id=":gneJ4_15" function="internal">
        <lane id=":gneJ4_15_0" index="0" speed="13.89" length="6.43" shape="-2.82,-19.11 1.44,-18.50 3.27,-17.41"/>
    </edge>
    <edge id=":gneJ4_19" function="internal">
        <lane id=":gneJ4_19_0" index="0" speed="13.89" length="9.26" shape="3.27,-17.41 4.49,-16.68 6.32,-13.64 6.94,-9.39"/>
    </edge>
    <edge id=":gneJ5_0" function="internal">
        <lane id=":gneJ5_0_0" index="0" speed="13.89" length="16.55" shape="121.66,-9.41 120.68,-10.76 117.74,-11.73 112.85,-12.31 106.00,-12.51"/>
    </edge>
    <edge id=":gneJ5_1" function="internal">
        <lane id=":gneJ5_1_0" index="0" speed="13.89" length="25.50" shape="124.96,-9.41 123.98,-13.33 121.05,-17.87 116.16,-23.03 109.32,-28.80"/>
    </edge>
    <edge id=":gneJ5_2" function="internal">
        <lane id=":gneJ5_2_0" index="0" speed="13.89" length="4.29" shape="124.96,-9.41 125.56,-13.65"/>
    </edge>
    <edge id=":gneJ5_15" function="internal">
        <lane id=":gneJ5_15_0" index="0" speed="13.89" length="11.36" shape="125.56,-13.65 127.38,-16.68 130.41,-18.50 134.66,-19.11"/>
    </edge>
    <edge id=":gneJ5_3" function="internal">
        <lane id=":gneJ5_3_0" index="0" speed="13.89" length="5.00" shape="134.66,-12.51 133.30,-12.31 132.33,-11.73 131.75,-10.76 131.56,-9.41"/>
    </edge>
    <edge id=":gneJ5_4" function="internal">
        <lane id=":gneJ5_4_0" index="0" speed="13.89" length="28.66" shape="134.66,-12.51 106.00,-12.51"/>
        <lane id=":gneJ5_4_1" index="1" speed="13.89" length="28.66" shape="134.66,-15.81 106.00,-15.81"/>
    </edge>
    <edge id=":gneJ5_6" function="internal">
        <lane id=":gneJ5_6_0" index="0" speed="13.89" length="29.02" shape="134.66,-15.81 127.59,-16.97 121.20,-20.00 115.20,-24.18 109.32,-28.80"/>
    </edge>
    <edge id=":gneJ5_7" function="internal">
        <lane id=":gneJ5_7_0" index="0" speed="13.89" length="25.91" shape="113.37,-34.01 118.62,-29.61 123.22,-25.91 128.22,-23.36 134.66,-22.41"/>
        <lane id=":gneJ5_7_1" index="1" speed="13.89" length="25.91" shape="111.34,-31.40 116.91,-26.89 122.21,-22.95 127.91,-20.16 134.66,-19.11"/>
    </edge>
    <edge id=":gneJ5_9" function="internal">
        <lane id=":gneJ5_9_0" index="0" speed="13.89" length="28.47" shape="111.34,-31.40 118.74,-25.10 124.03,-19.33 127.20,-14.10 128.26,-9.41"/>
    </edge>
    <edge id=":gneJ5_10" function="internal">
        <lane id=":gneJ5_10_0" index="0" speed="13.89" length="12.61" shape="111.34,-31.40 118.54,-24.58 119.33,-22.01"/>
    </edge>
    <edge id=":gneJ5_16" function="internal">
        <lane id=":gneJ5_16_0" index="0" speed="13.89" length="17.43" shape="119.33,-22.01 120.05,-19.70 115.86,-16.78 106.00,-15.81"/>
    </edge>
    <edge id=":gneJ5_11" function="internal">
        <lane id=":gneJ5_11_0" index="0" speed="13.89" length="7.29" shape="106.00,-22.41 108.39,-22.64 109.41,-23.35 109.04,-24.53 107.29,-26.19"/>
    </edge>
    <edge id=":gneJ5_12" function="internal">
        <lane id=":gneJ5_12_0" index="0" speed="13.89" length="28.66" shape="106.00,-22.41 134.66,-22.41"/>
        <lane id=":gneJ5_12_1" index="1" speed="13.89" length="28.66" shape="106.00,-19.11 134.66,-19.11"/>
    </edge>
    <edge id=":gneJ5_14" function="internal">
        <lane id=":gneJ5_14_0" index="0" speed="13.89" length="14.08" shape="106.00,-19.11 115.74,-18.50 119.92,-17.41"/>
    </edge>
    <edge id=":gneJ5_17" function="internal">
        <lane id=":gneJ5_17_0" index="0" speed="13.89" length="12.49" shape="119.92,-17.41 122.69,-16.68 126.86,-13.65 128.26,-9.41"/>
    </edge>
    <edge id=":gneJ9_0" function="internal">
        <lane id=":gneJ9_0_0" index="0" speed="13.89" length="11.22" shape="-0.12,-97.11 -0.34,-101.51 -0.93,-104.66 -1.91,-106.54 -3.27,-107.17"/>
    </edge>
    <edge id=":gneJ9_1" function="internal">
        <lane id=":gneJ9_1_0" index="0" speed="13.89" length="23.80" shape="3.18,-97.13 4.04,-104.47 6.73,-108.09 11.25,-108.02 17.59,-104.23"/>
    </edge>
    <edge id=":gneJ9_2" function="internal">
        <lane id=":gneJ9_2_0" index="0" speed="13.89" length="6.21" shape="13.54,-99.02 11.88,-100.01 10.71,-100.03 10.00,-99.08 9.78,-97.17"/>
    </edge>
    <edge id=":gneJ9_3" function="internal">
        <lane id=":gneJ9_3_0" index="0" speed="13.89" length="20.39" shape="13.54,-99.02 9.11,-102.71 5.87,-105.24 2.26,-106.70 -3.27,-107.17"/>
        <lane id=":gneJ9_3_1" index="1" speed="13.89" length="20.39" shape="15.56,-101.63 10.69,-105.60 6.94,-108.35 2.78,-109.95 -3.27,-110.47"/>
    </edge>
    <edge id=":gneJ9_5" function="internal">
        <lane id=":gneJ9_5_0" index="0" speed="13.89" length="24.59" shape="-3.27,-117.07 3.42,-116.33 8.96,-114.25 14.11,-111.03 19.61,-106.84"/>
        <lane id=":gneJ9_5_1" index="1" speed="13.89" length="24.59" shape="-3.27,-113.77 3.10,-113.14 7.95,-111.30 12.40,-108.31 17.59,-104.23"/>
    </edge>
    <edge id=":gneJ9_7" function="internal">
        <lane id=":gneJ9_7_0" index="0" speed="13.89" length="5.91" shape="-3.27,-113.77 0.96,-112.73 2.04,-111.62"/>
    </edge>
    <edge id=":gneJ9_8" function="internal">
        <lane id=":gneJ9_8_0" index="0" speed="13.89" length="15.61" shape="2.04,-111.62 4.00,-109.61 5.84,-104.42 6.48,-97.15"/>
    </edge>

    <edge id="gneE0" from="gneJ0" to="gneJ1" priority="1" length="200.00">
        <lane id="gneE0_0" index="0" speed="13.89" length="200.00" shape="-53.33,88.47 -2.50,88.24"/>
        <lane id="gneE0_1" index="1" speed="13.89" length="200.00" shape="-53.31,91.77 -2.48,91.54"/>
    </edge>
    <edge id="gneE1" from="gneJ1" to="gneJ0" priority="1" length="200.00">
        <lane id="gneE1_0" index="0" speed="13.89" length="200.00" shape="-2.45,98.14 -53.28,98.37"/>
        <lane id="gneE1_1" index="1" speed="13.89" length="200.00" shape="-2.47,94.84 -53.30,95.07"/>
    </edge>
    <edge id="gneE10" from="gneJ5" to="gneJ2" priority="1" length="400.00">
        <lane id="gneE10_0" index="0" speed="13.89" length="400.00" shape="131.56,-9.41 131.56,85.36"/>
        <lane id="gneE10_1" index="1" speed="13.89" length="400.00" shape="128.26,-9.41 128.26,85.36"/>
    </edge>
    <edge id="gneE11" from="gneJ2" to="gneJ5" priority="1" length="400.00">
        <lane id="gneE11_0" index="0" speed="13.89" length="400.00" shape="121.66,85.36 121.66,-9.41"/>
        <lane id="gneE11_1" index="1" speed="13.89" length="400.00" shape="124.96,85.36 124.96,-9.41"/>
    </edge>
    <edge id="gneE12" from="gneJ5" to="gneJ6" priority="1" length="200.00">
        <lane id="gneE12_0" index="0" speed="13.89" length="200.00" shape="134.66,-22.41 191.98,-22.41"/>
        <lane id="gneE12_1" index="1" speed="13.89" length="200.00" shape="134.66,-19.11 191.98,-19.11"/>
    </edge>
    <edge id="gneE13" from="gneJ6" to="gneJ5" priority="1" length="200.00">
        <lane id="gneE13_0" index="0" speed="13.89" length="200.00" shape="191.98,-12.51 134.66,-12.51"/>
        <lane id="gneE13_1" index="1" speed="13.89" length="200.00" shape="191.98,-15.81 134.66,-15.81"/>
    </edge>
    <edge id="gneE14" from="gneJ4" to="gneJ7" priority="1" length="200.00">
        <lane id="gneE14_0" index="0" speed="13.89" length="200.00" shape="-2.82,-12.51 -53.83,-12.51"/>
        <lane id="gneE14_1" index="1" speed="13.89" length="200.00" shape="-2.82,-15.81 -53.83,-15.81"/>
    </edge>
    <edge id="gneE16" from="gneJ7" to="gneJ4" priority="1" length="200.00">
        <lane id="gneE16_0" index="0" speed="13.89" length="200.00" shape="-53.83,-22.41 -2.82,-22.41"/>
        <lane id="gneE16_1" index="1" speed="13.89" length="200.00" shape="-53.83,-19.11 -2.82,-19.11"/>
    </edge>
    <edge id="gneE17" from="gneJ4" to="gneJ9" priority="1" length="300.00">
        <lane id="gneE17_0" index="0" speed="13.89" length="300.00" shape="0.28,-25.51 -0.12,-97.11"/>
        <lane id="gneE17_1" index="1" speed="13.89" length="300.00" shape="3.58,-25.53 3.18,-97.13"/>
    </edge>
    <edge id="gneE18" from="gneJ9" to="gneJ4" priority="1" length="300.00">
        <lane id="gneE18_0" index="0" speed="13.89" length="300.00" shape="9.78,-97.17 10.18,-25.57"/>
        <lane id="gneE18_1" index="1" speed="13.89" length="300.00" shape="6.48,-97.15 6.88,-25.55"/>
    </edge>
    <edge id="gneE19" from="gneJ9" to="gneJ5" priority="1" length="500.00">
        <lane id="gneE19_0" index="0" speed="13.89" length="500.00" shape="19.61,-106.84 113.37,-34.01"/>
        <lane id="gneE19_1" index="1" speed="13.89" length="500.00" shape="17.59,-104.23 111.34,-31.40"/>
    </edge>
    <edge id="gneE2" from="gneJ1" to="gneJ2" priority="1" length="400.00">
        <lane id="gneE2_0" index="0" speed="13.89" length="400.00" shape="13.59,88.22 118.55,88.45"/>
        <lane id="gneE2_1" index="1" speed="13.89" length="400.00" shape="13.59,91.52 118.55,91.75"/>
    </edge>
    <edge id="gneE20" from="gneJ5" to="gneJ9" priority="1" length="500.00">
        <lane id="gneE20_0" index="0" speed="13.89" length="500.00" shape="107.29,-26.19 13.54,-99.02"/>
        <lane id="gneE20_1" index="1" speed="13.89" length="500.00" shape="109.32,-28.80 15.56,-101.63"/>
    </edge>
    <edge id="gneE21" from="gneJ9" to="gneJ10" priority="1" length="200.00">
        <lane id="gneE21_0" index="0" speed="13.89" length="200.00" shape="-3.27,-107.17 -52.26,-107.17"/>
        <lane id="gneE21_1" index="1" speed="13.89" length="200.00" shape="-3.27,-110.47 -52.26,-110.47"/>
    </edge>
    <edge id="gneE22" from="gneJ10" to="gneJ9" priority="1" length="200.00">
        <lane id="gneE22_0" index="0" speed="13.89" length="200.00" shape="-52.26,-117.07 -3.27,-117.07"/>
        <lane id="gneE22_1" index="1" speed="13.89" length="200.00" shape="-52.26,-113.77 -3.27,-113.77"/>
    </edge>
    <edge id="gneE3" from="gneJ2" to="gneJ1" priority="1" length="400.00">
        <lane id="gneE3_0" index="0" speed="13.89" length="400.00" shape="118.53,98.35 13.57,98.12"/>
        <lane id="gneE3_1" index="1" speed="13.89" length="400.00" shape="118.54,95.05 13.58,94.82"/>
    </edge>
    <edge id="gneE4" from="gneJ2" to="gneJ3" priority="1" length="200.00">
        <lane id="gneE4_0" index="0" speed="13.89" length="200.00" shape="134.66,88.47 190.94,88.47"/>
        <lane id="gneE4_1" index="1" speed="13.89" length="200.00" shape="134.66,91.77 190.94,91.77"/>
    </edge>
    <edge id="gneE5" from="gneJ3" to="gneJ2" priority="1" length="200.00">
        <lane id="gneE5_0" index="0" speed="13.89" length="200.00" shape="190.94,98.37 134.66,98.37"/>
        <lane id="gneE5_1" index="1" speed="13.89" length="200.00" shape="190.94,95.07 134.66,95.07"/>
    </edge>
    <edge id="gneE6" from="gneJ1" to="gneJ4" priority="1" length="400.00">
        <lane id="gneE6_0" index="0" speed="13.89" length="400.00" shape="0.59,85.13 0.34,-9.38"/>
        <lane id="gneE6_1" index="1" speed="13.89" length="400.00" shape="3.89,85.12 3.64,-9.38"/>
    </edge>
    <edge id="gneE7" from="gneJ4" to="gneJ1" priority="1" length="400.00">
        <lane id="gneE7_0" index="0" speed="13.89" length="400.00" shape="10.24,-9.40 10.49,85.10"/>
        <lane id="gneE7_1" index="1" speed="13.89" length="400.00" shape="6.94,-9.39 7.19,85.11"/>
    </edge>
    <edge id="gneE8" from="gneJ4" to="gneJ5" priority="1" length="400.00">
        <lane id="gneE8_0" index="0" speed="13.89" length="400.00" shape="13.34,-22.41 106.00,-22.41"/>
        <lane id="gneE8_1" index="1" speed="13.89" length="400.00" shape="13.34,-19.11 106.00,-19.11"/>
    </edge>
    <edge id="gneE9" from="gneJ5" to="gneJ4" priority="1" length="400.00">
        <lane id="gneE9_0" index="0" speed="13.89" length="400.00" shape="106.00,-12.51 13.34,-12.51"/>
        <lane id="gneE9_1" index="1" speed="13.89" length="400.00" shape="106.00,-15.81 13.34,-15.81"/>
    </edge>

    <tlLogic id="gneJ1" type="static" programID="0" offset="0">
        <phase duration="36" state="GGgrrGGG"/>
        <phase duration="4" state="yygrryyy"/>
        <phase duration="6" state="rrGrrrrr"/>
        <phase duration="4" state="rryrrrrr"/>
        <phase duration="36" state="rrrGGGrr"/>
        <phase duration="4" state="rrryyyrr"/>
    </tlLogic>
    <tlLogic id="gneJ2" type="static" programID="0" offset="0">
        <phase duration="36" state="GGgrrGGG"/>
        <phase duration="4" state="yygrryyy"/>
        <phase duration="6" state="rrGrrrrr"/>
        <phase duration="4" state="rryrrrrr"/>
        <phase duration="36" state="rrrGGGrr"/>
        <phase duration="4" state="rrryyyrr"/>
    </tlLogic>
    <tlLogic id="gneJ4" type="static" programID="0" offset="0">
        <phase duration="31" state="rrrrGGGgrrrrGGGg"/>
        <phase duration="4" state="rrrryyygrrrryyyg"/>
        <phase duration="6" state="rrrrrrrGrrrrrrrG"/>
        <phase duration="4" state="rrrrrrryrrrrrrry"/>
        <phase duration="31" state="GGGgrrrrGGGgrrrr"/>
        <phase duration="4" state="yyygrrrryyygrrrr"/>
        <phase duration="6" state="rrrGrrrrrrrGrrrr"/>
        <phase duration="4" state="rrryrrrrrrryrrrr"/>
    </tlLogic>
    <tlLogic id="gneJ5" type="static" programID="0" offset="0">
        <phase duration="31" state="rrrGGGgrrrrGGGg"/>
        <phase duration="4" state="rrryyygrrrryyyg"/>
        <phase duration="6" state="rrrrrrGrrrrrrrG"/>
        <phase duration="4" state="rrrrrryrrrrrrry"/>
        <phase duration="31" state="GGgrrrrGGGgrrrr"/>
        <phase duration="4" state="yygrrrryyygrrrr"/>
        <phase duration="6" state="rrGrrrrrrrGrrrr"/>
        <phase duration="4" state="rryrrrrrrryrrrr"/>
    </tlLogic>
    <tlLogic id="gneJ9" type="static" programID="0" offset="0">
        <phase duration="36" state="rrGGGGGg"/>
        <phase duration="4" state="rryyyyyg"/>
        <phase duration="6" state="rrrrrrrG"/>
        <phase duration="4" state="rrrrrrry"/>
        <phase duration="36" state="GGGrrrrr"/>
        <phase duration="4" state="yyyrrrrr"/>
    </tlLogic>

    <junction id="gneJ0" type="dead_end" x="-53.31" y="93.42" incLanes="gneE1_0 gneE1_1" intLanes="" shape="-53.31,93.37 -53.34,86.87 -53.28,99.97 -53.31,93.47"/>
    <junction id="gneJ1" type="traffic_light" x="5.56" y="93.15" incLanes="gneE3_0 gneE3_1 gneE7_0 gneE7_1 gneE0_0 gneE0_1" intLanes=":gneJ1_0_0 :gneJ1_0_1 :gneJ1_8_0 :gneJ1_3_0 :gneJ1_4_0 :gneJ1_5_0 :gneJ1_6_0 :gneJ1_6_1" shape="13.57,99.72 13.60,86.62 12.09,85.10 -1.01,85.13 -2.50,86.64 -2.44,99.74">
        <request index="0" response="00000000" foes="00010000" cont="0"/>
        <request index="1" response="00000000" foes="00010000" cont="0"/>
        <request index="2" response="11000000" foes="11010000" cont="1"/>
        <request index="3" response="11000000" foes="11000000" cont="0"/>
        <request index="4" response="11000111" foes="11000111" cont="0"/>
        <request index="5" response="00000000" foes="00000000" cont="0"/>
        <request index="6" response="00000000" foes="00011100" cont="0"/>
        <request index="7" response="00000000" foes="00011100" cont="0"/>
    </junction>
    <junction id="gneJ10" type="dead_end" x="-52.26" y="-112.12" incLanes="gneE21_0 gneE21_1" intLanes="" shape="-52.26,-112.17 -52.26,-118.67 -52.26,-105.57 -52.26,-112.07"/>
    <junction id="gneJ2" type="traffic_light" x="126.61" y="93.42" incLanes="gneE5_0 gneE5_1 gneE10_0 gneE10_1 gneE2_0 gneE2_1" intLanes=":gneJ2_0_0 :gneJ2_0_1 :gneJ2_8_0 :gneJ2_3_0 :gneJ2_4_0 :gneJ2_5_0 :gneJ2_6_0 :gneJ2_6_1" shape="134.66,99.97 134.66,86.87 133.16,85.36 120.06,85.36 118.56,86.85 118.53,99.95">
        <request index="0" response="00000000" foes="00010000" cont="0"/>
        <request index="1" response="00000000" foes="00010000" cont="0"/>
        <request index="2" response="11000000" foes="11010000" cont="1"/>
        <request index="3" response="11000000" foes="11000000" cont="0"/>
        <request index="4" response="11000111" foes="11000111" cont="0"/>
        <request index="5" response="00000000" foes="00000000" cont="0"/>
        <request index="6" response="00000000" foes="00011100" cont="0"/>
        <request index="7" response="00000000" foes="00011100" cont="0"/>
    </junction>
    <junction id="gneJ3" type="dead_end" x="190.94" y="93.42" incLanes="gneE4_0 gneE4_1" intLanes="" shape="190.94,93.47 190.94,99.97 190.94,86.87 190.94,93.37"/>
    <junction id="gneJ4" type="traffic_light" x="5.27" y="-17.46" incLanes="gneE6_0 gneE6_1 gneE9_0 gneE9_1 gneE18_0 gneE18_1 gneE16_0 gneE16_1" intLanes=":gneJ4_0_0 :gneJ4_1_0 :gneJ4_1_1 :gneJ4_16_0 :gneJ4_4_0 :gneJ4_5_0 :gneJ4_5_1 :gneJ4_17_0 :gneJ4_8_0 :gneJ4_9_0 :gneJ4_9_1 :gneJ4_18_0 :gneJ4_12_0 :gneJ4_13_0 :gneJ4_13_1 :gneJ4_19_0" shape="-1.26,-9.37 11.84,-9.41 13.34,-10.91 13.34,-24.01 11.78,-25.58 -1.32,-25.51 -2.82,-24.01 -2.82,-10.91">
        <request index="0" response="0000000001100000" foes="0000100001100000" cont="0"/>
        <request index="1" response="1111000011100000" foes="1111100011100000" cont="0"/>
        <request index="2" response="1111000011100000" foes="1111100011100000" cont="0"/>
        <request index="3" response="1110011111100000" foes="1110011111100000" cont="1"/>
        <request index="4" response="0000000000000000" foes="1000011000000000" cont="0"/>
        <request index="5" response="0000000000000000" foes="1000111000001111" cont="0"/>
        <request index="6" response="0000000000000000" foes="1000111000001111" cont="0"/>
        <request index="7" response="0111000000000000" foes="0111111000001110" cont="1"/>
        <request index="8" response="0110000000000000" foes="0110000000001000" cont="0"/>
        <request index="9" response="1110000011110000" foes="1110000011111000" cont="0"/>
        <request index="10" response="1110000011110000" foes="1110000011111000" cont="0"/>
        <request index="11" response="1110000011100111" foes="1110000011100111" cont="1"/>
        <request index="12" response="0000000000000000" foes="0000000010000110" cont="0"/>
        <request index="13" response="0000000000000000" foes="0000111110001110" cont="0"/>
        <request index="14" response="0000000000000000" foes="0000111110001110" cont="0"/>
        <request index="15" response="0000000001110000" foes="0000111001111110" cont="1"/>
    </junction>
    <junction id="gneJ5" type="traffic_light" x="126.61" y="-17.46" incLanes="gneE11_0 gneE11_1 gneE13_0 gneE13_1 gneE19_0 gneE19_1 gneE8_0 gneE8_1" intLanes=":gneJ5_0_0 :gneJ5_1_0 :gneJ5_15_0 :gneJ5_3_0 :gneJ5_4_0 :gneJ5_4_1 :gneJ5_6_0 :gneJ5_7_0 :gneJ5_7_1 :gneJ5_9_0 :gneJ5_16_0 :gneJ5_11_0 :gneJ5_12_0 :gneJ5_12_1 :gneJ5_17_0" shape="120.06,-9.41 133.16,-9.41 134.66,-10.91 134.66,-24.01 114.35,-35.27 106.31,-24.93 106.00,-24.01 106.00,-10.91">
        <request index="0" response="000000000110000" foes="000010000110000" cont="0"/>
        <request index="1" response="111100001110000" foes="111110001110000" cont="0"/>
        <request index="2" response="111001111110000" foes="111001111110000" cont="1"/>
        <request index="3" response="000000000000000" foes="100001000000000" cont="0"/>
        <request index="4" response="000000000000000" foes="100011000000111" cont="0"/>
        <request index="5" response="000000000000000" foes="100011000000111" cont="0"/>
        <request index="6" response="011100000000000" foes="011111000000110" cont="0"/>
        <request index="7" response="011000000000000" foes="011000000000100" cont="0"/>
        <request index="8" response="011000000000000" foes="011000000000100" cont="0"/>
        <request index="9" response="111000001111000" foes="111000001111100" cont="0"/>
        <request index="10" response="111000001110011" foes="111000001110011" cont="1"/>
        <request index="11" response="000000000000000" foes="000000001000010" cont="0"/>
        <request index="12" response="000000000000000" foes="000011111000110" cont="0"/>
        <request index="13" response="000000000000000" foes="000011111000110" cont="0"/>
        <request index="14" response="000000000111000" foes="000011000111110" cont="1"/>
    </junction>
    <junction id="gneJ6" type="dead_end" x="191.98" y="-17.46" incLanes="gneE12_0 gneE12_1" intLanes="" shape="191.98,-17.41 191.98,-10.91 191.98,-24.01 191.98,-17.51"/>
    <junction id="gneJ7" type="dead_end" x="-53.83" y="-17.46" incLanes="gneE14_0 gneE14_1" intLanes="" shape="-53.83,-17.51 -53.83,-24.01 -53.83,-10.91 -53.83,-17.41"/>
    <junction id="gneJ9" type="traffic_light" x="4.75" y="-112.12" incLanes="gneE17_0 gneE17_1 gneE20_0 gneE20_1 gneE22_0 gneE22_1" intLanes=":gneJ9_0_0 :gneJ9_1_0 :gneJ9_2_0 :gneJ9_3_0 :gneJ9_3_1 :gneJ9_5_0 :gneJ9_5_1 :gneJ9_8_0" shape="-1.72,-97.11 11.38,-97.18 12.56,-97.76 20.59,-108.10 -3.27,-118.67 -3.27,-105.57">
        <request index="0" response="00011000" foes="00011000" cont="0"/>
        <request index="1" response="11111000" foes="11111000" cont="0"/>
        <request index="2" response="00000000" foes="00000000" cont="0"/>
        <request index="3" response="00000000" foes="10000011" cont="0"/>
        <request index="4" response="00000000" foes="10000011" cont="0"/>
        <request index="5" response="00000000" foes="00000010" cont="0"/>
        <request index="6" response="00000000" foes="00000010" cont="0"/>
        <request index="7" response="00011000" foes="00011010" cont="1"/>
    </junction>

    <junction id=":gneJ1_8_0" type="internal" x="7.56" y="93.13" incLanes=":gneJ1_2_0 gneE0_0 gneE0_1" intLanes=":gneJ1_4_0 :gneJ1_6_0 :gneJ1_6_1"/>
    <junction id=":gneJ2_8_0" type="internal" x="128.58" y="93.36" incLanes=":gneJ2_2_0 gneE2_0 gneE2_1" intLanes=":gneJ2_4_0 :gneJ2_6_0 :gneJ2_6_1"/>
    <junction id=":gneJ4_16_0" type="internal" x="5.32" y="-15.44" incLanes=":gneJ4_3_0 gneE18_0 gneE18_1" intLanes=":gneJ4_5_0 :gneJ4_5_1 :gneJ4_7_0 :gneJ4_8_0 :gneJ4_9_0 :gneJ4_9_1 :gneJ4_13_0 :gneJ4_13_1 :gneJ4_15_0"/>
    <junction id=":gneJ4_17_0" type="internal" x="7.26" y="-17.51" incLanes=":gneJ4_7_0 gneE16_0 gneE16_1" intLanes=":gneJ4_1_0 :gneJ4_1_1 :gneJ4_3_0 :gneJ4_9_0 :gneJ4_9_1 :gneJ4_11_0 :gneJ4_12_0 :gneJ4_13_0 :gneJ4_13_1"/>
    <junction id=":gneJ4_18_0" type="internal" x="5.20" y="-19.45" incLanes=":gneJ4_11_0 gneE6_0 gneE6_1" intLanes=":gneJ4_0_0 :gneJ4_1_0 :gneJ4_1_1 :gneJ4_5_0 :gneJ4_5_1 :gneJ4_7_0 :gneJ4_13_0 :gneJ4_13_1 :gneJ4_15_0"/>
    <junction id=":gneJ4_19_0" type="internal" x="3.27" y="-17.41" incLanes=":gneJ4_15_0 gneE9_0 gneE9_1" intLanes=":gneJ4_1_0 :gneJ4_1_1 :gneJ4_3_0 :gneJ4_4_0 :gneJ4_5_0 :gneJ4_5_1 :gneJ4_9_0 :gneJ4_9_1 :gneJ4_11_0"/>
    <junction id=":gneJ5_15_0" type="internal" x="125.56" y="-13.65" incLanes=":gneJ5_2_0 gneE19_0 gneE19_1" intLanes=":gneJ5_4_0 :gneJ5_4_1 :gneJ5_6_0 :gneJ5_7_0 :gneJ5_7_1 :gneJ5_9_0 :gneJ5_12_0 :gneJ5_12_1 :gneJ5_14_0"/>