<?xml version="1.0" encoding="UTF-8"?>

<!-- generated on 02.05.2016 15:59:51 by Netedit Version dev-SVN-r18894
<?xml version="1.0" encoding="UTF-8"?>

<configuration xmlns:xsi="http://www.w3.org/2001/XMLSchema-instance" xsi:noNamespaceSchemaLocation="http://sumo.dlr.de/xsd/netedit.exeConfiguration.xsd">

    <input>
        <sumo-net-file value="C:\Users\tang.IVS\Dropbox\PhD\Implementation\Test%20network\SUMO\NineIntersectionOneODpair.net.xml"/>
    </input>

    <output>
        <output-file value="C:\Users\tang.IVS\Dropbox\PhD\Implementation\Test%20network\SUMO\NineIntersectionOneODpair.net.xml"/>
    </output>

    <processing>
        <no-turnarounds value="true"/>
        <offset.disable-normalization value="true"/>
    </processing>

</configuration>
-->

<net version="0.13" xmlns:xsi="http://www.w3.org/2001/XMLSchema-instance" xsi:noNamespaceSchemaLocation="http://sumo.dlr.de/xsd/net_file.xsd">

    <location netOffset="0.00,0.00" convBoundary="-109.05,-467.68,633.15,81.16" origBoundary="-10000000000.00,-10000000000.00,10000000000.00,10000000000.00" projParameter="!"/>

    <edge id=":gneJ0_0" function="internal">
        <lane id=":gneJ0_0_0" index="0" speed="13.89" length="5.02" shape="-17.80,79.11 -16.43,78.92 -15.46,78.35 -14.88,77.37 -14.70,76.01"/>
    </edge>
    <edge id=":gneJ0_1" function="internal">
        <lane id=":gneJ0_1_0" index="0" speed="13.89" length="6.30" shape="-17.80,79.11 -11.50,79.15"/>
    </edge>
    <edge id=":gneJ1_0" function="internal">
        <lane id=":gneJ1_0_0" index="0" speed="13.89" length="5.00" shape="265.96,79.50 267.32,79.31 268.29,78.73 268.87,77.76 269.07,76.40"/>
    </edge>
    <edge id=":gneJ1_1" function="internal">
        <lane id=":gneJ1_1_0" index="0" speed="13.89" length="6.24" shape="265.96,79.50 272.20,79.51"/>
    </edge>
    <edge id=":gneJ2_0" function="internal">
        <lane id=":gneJ2_0_0" index="0" speed="13.89" length="2.76" shape="551.90,79.06 552.66,78.95 553.18,78.62 553.46,78.07 553.49,77.31"/>
    </edge>
    <edge id=":gneJ3_0" function="internal">
        <lane id=":gneJ3_0_0" index="0" speed="13.89" length="6.25" shape="-17.33,-186.82 -17.49,-193.07"/>
    </edge>
    <edge id=":gneJ3_1" function="internal">
        <lane id=":gneJ3_1_0" index="0" speed="13.89" length="5.08" shape="-17.33,-186.82 -17.15,-188.22 -16.58,-189.22 -15.61,-189.82 -14.25,-190.02"/>
    </edge>
    <edge id=":gneJ4_0" function="internal">
        <lane id=":gneJ4_0_0" index="0" speed="13.89" length="5.02" shape="267.08,-190.02 268.44,-190.21 269.42,-190.80 270.00,-191.77 270.21,-193.13"/>
    </edge>
    <edge id=":gneJ4_1" function="internal">
        <lane id=":gneJ4_1_0" index="0" speed="13.89" length="6.21" shape="267.08,-190.02 273.29,-190.01"/>
    </edge>
    <edge id=":gneJ4_2" function="internal">
        <lane id=":gneJ4_2_0" index="0" speed="13.89" length="6.22" shape="270.17,-186.91 270.21,-193.13"/>
    </edge>
    <edge id=":gneJ4_3" function="internal">
        <lane id=":gneJ4_3_0" index="0" speed="13.89" length="1.54" shape="270.17,-186.91 270.37,-188.27 270.46,-188.42"/>
    </edge>
    <edge id=":gneJ4_4" function="internal">
        <lane id=":gneJ4_4_0" index="0" speed="13.89" length="3.47" shape="270.46,-188.42 270.96,-189.25 271.93,-189.83 273.29,-190.01"/>
    </edge>
    <edge id=":gneJ5_0" function="internal">
        <lane id=":gneJ5_0_0" index="0" speed="13.89" length="6.27" shape="528.72,-185.76 528.94,-192.03"/>
    </edge>
    <edge id=":gneJ5_1" function="internal">
        <lane id=":gneJ5_1_0" index="0" speed="13.89" length="5.13" shape="525.46,-189.07 526.89,-189.25 527.95,-189.80 528.63,-190.73 528.94,-192.03"/>
    </edge>
    <edge id=":gneJ6_0" function="internal">
        <lane id=":gneJ6_0_0" index="0" speed="13.89" length="2.63" shape="-25.42,-467.68 -25.34,-468.40 -25.04,-468.92 -24.54,-469.23 -23.82,-469.33"/>
    </edge>
    <edge id=":gneJ7_0" function="internal">
        <lane id=":gneJ7_0_0" index="0" speed="13.89" length="6.25" shape="268.63,-469.33 274.88,-469.33"/>
    </edge>
    <edge id=":gneJ7_1" function="internal">
        <lane id=":gneJ7_1_0" index="0" speed="13.89" length="1.55" shape="271.72,-466.22 271.93,-467.58 272.02,-467.73"/>
    </edge>
    <edge id=":gneJ7_2" function="internal">
        <lane id=":gneJ7_2_0" index="0" speed="13.89" length="3.50" shape="272.02,-467.73 272.52,-468.55 273.50,-469.14 274.88,-469.33"/>
    </edge>
    <edge id=":gneJ8_0" function="internal">
        <lane id=":gneJ8_0_0" index="0" speed="13.89" length="6.26" shape="548.44,-469.33 554.70,-469.31"/>
    </edge>
    <edge id=":gneJ8_1" function="internal">
        <lane id=":gneJ8_1_0" index="0" speed="13.89" length="1.68" shape="551.42,-466.10 551.72,-467.52 551.85,-467.72"/>
    </edge>
    <edge id=":gneJ8_2" function="internal">
        <lane id=":gneJ8_2_0" index="0" speed="13.89" length="3.47" shape="551.85,-467.72 552.37,-468.53 553.36,-469.12 554.70,-469.31"/>
    </edge>

    <edge id="gneE0" from="gneJ0" to="gneJ1" priority="1" length="2800.00">
        <lane id="gneE0_0" index="0" speed="13.89" length="2800.00" shape="-11.50,79.15 265.96,79.50"/>
    </edge>
    <edge id="gneE1" from="gneJ1" to="gneJ2" priority="1" length="2800.00">
        <lane id="gneE1_0" index="0" speed="13.89" length="2800.00" shape="272.20,79.51 551.90,79.06"/>
    </edge>
    <edge id="gneE10" from="gneJ5" to="gneJ8" priority="1" length="2800.00">
        <lane id="gneE10_0" index="0" speed="13.89" length="2800.00" shape="528.94,-192.03 551.42,-466.10"/>
    </edge>
    <edge id="gneE11" from="gneJ7" to="gneJ8" priority="1" length="2800.00">
        <lane id="gneE11_0" index="0" speed="13.89" length="2800.00" shape="274.88,-469.33 548.44,-469.33"/>
    </edge>
    <edge id="gneE12" from="gneJ8" to="gneJ9" priority="1" length="40.00">
        <lane id="gneE12_0" index="0" speed="13.89" length="40.00" shape="554.70,-469.31 633.18,-468.00"/>
    </edge>
    <edge id="gneE13" from="gneJ10" to="gneJ0" priority="1" length="40.00">
        <lane id="gneE13_0" index="0" speed="13.89" length="40.00" shape="-109.04,78.32 -17.80,79.11"/>
    </edge>
    <edge id="gneE2" from="gneJ0" to="gneJ3" priority="1" length="2800.00">
        <lane id="gneE2_0" index="0" speed="13.89" length="2800.00" shape="-14.70,76.01 -17.33,-186.82"/>
    </edge>
    <edge id="gneE3" from="gneJ3" to="gneJ4" priority="1" length="1400.00">
        <lane id="gneE3_0" index="0" speed="13.89" length="1400.00" shape="-14.25,-190.02 267.08,-190.02"/>
    </edge>
    <edge id="gneE4" from="gneJ1" to="gneJ4" priority="1" length="2800.00">
        <lane id="gneE4_0" index="0" speed="13.89" length="2800.00" shape="269.07,76.40 270.17,-186.91"/>
    </edge>
    <edge id="gneE5" from="gneJ2" to="gneJ5" priority="1" length="2800.00">
        <lane id="gneE5_0" index="0" speed="13.89" length="2800.00" shape="553.49,77.31 528.72,-185.76"/>
    </edge>
    <edge id="gneE6" from="gneJ4" to="gneJ5" priority="1" length="1400.00">
        <lane id="gneE6_0" index="0" speed="13.89" length="1400.00" shape="273.29,-190.01 525.46,-189.07"/>
    </edge>
    <edge id="gneE7" from="gneJ3" to="gneJ6" priority="1" length="2800.00">
        <lane id="gneE7_0" index="0" speed="13.89" length="2800.00" shape="-17.49,-193.07 -25.42,-467.68"/>
    </edge>
    <edge id="gneE8" from="gneJ6" to="gneJ7" priority="1" length="2800.00">
        <lane id="gneE8_0" index="0" speed="13.89" length="2800.00" shape="-23.82,-469.33 268.63,-469.33"/>
    </edge>
    <edge id="gneE9" from="gneJ4" to="gneJ7" priority="1" length="2800.00">
        <lane id="gneE9_0" index="0" speed="13.89" length="2800.00" shape="270.21,-193.13 271.72,-466.22"/>
    </edge>

    <junction id="gneJ0" type="priority" x="-13.00" y="80.80" incLanes="gneE13_0" intLanes=":gneJ0_0_0 :gneJ0_1_0" shape="-11.50,80.75 -11.50,77.55 -13.10,75.99 -16.30,76.02 -17.78,77.51 -17.81,80.71">
        <request index="0" response="00" foes="00" cont="0"/>
        <request index="1" response="00" foes="00" cont="0"/>
    </junction>
    <junction id="gneJ1" type="priority" x="270.70" y="81.16" incLanes="gneE0_0" intLanes=":gneJ1_0_0 :gneJ1_1_0" shape="272.20,81.11 272.19,77.91 270.67,76.41 267.47,76.40 265.96,77.90 265.96,81.10">
        <request index="0" response="00" foes="00" cont="0"/>
        <request index="1" response="00" foes="00" cont="0"/>
    </junction>
    <junction id="gneJ10" type="unregulated" x="-109.05" y="79.97" incLanes="" intLanes="" shape="-109.05,79.92 -109.02,76.72"/>
    <junction id="gneJ2" type="priority" x="555.47" y="80.70" incLanes="gneE1_0" intLanes=":gneJ2_0_0" shape="555.09,77.16 551.90,77.46 551.91,80.66">
        <request index="0" response="0" foes="0" cont="0"/>
    </junction>
    <junction id="gneJ3" type="priority" x="-15.70" y="-188.37" incLanes="gneE2_0" intLanes=":gneJ3_0_0 :gneJ3_1_0" shape="-18.93,-186.81 -15.73,-186.84 -14.25,-188.42 -14.25,-191.62 -15.89,-193.12 -19.09,-193.03">
        <request index="0" response="00" foes="00" cont="0"/>
        <request index="1" response="00" foes="00" cont="0"/>
    </junction>
    <junction id="gneJ4" type="priority" x="271.83" y="-188.37" incLanes="gneE3_0 gneE4_0" intLanes=":gneJ4_0_0 :gneJ4_1_0 :gneJ4_2_0 :gneJ4_4_0" shape="273.29,-188.41 273.30,-191.61 271.81,-193.12 268.61,-193.14 267.08,-191.62 267.08,-188.42 268.57,-186.92 271.77,-186.91">
        <request index="0" response="0000" foes="0100" cont="0"/>
        <request index="1" response="0000" foes="1100" cont="0"/>
        <request index="2" response="0011" foes="0011" cont="0"/>
        <request index="3" response="0010" foes="0010" cont="1"/>
    </junction>
    <junction id="gneJ5" type="priority" x="530.22" y="-187.40" incLanes="gneE5_0 gneE6_0" intLanes=":gneJ5_0_0 :gneJ5_1_0" shape="527.12,-185.61 530.31,-185.91 530.54,-191.89 527.35,-192.16 525.46,-190.67 525.45,-187.47">
        <request index="0" response="10" foes="10" cont="0"/>
        <request index="1" response="00" foes="01" cont="0"/>
    </junction>
    <junction id="gneJ6" type="priority" x="-23.77" y="-467.68" incLanes="gneE7_0" intLanes=":gneJ6_0_0" shape="-27.02,-467.64 -23.82,-467.73 -23.82,-470.93">
        <request index="0" response="0" foes="0" cont="0"/>
    </junction>
    <junction id="gneJ7" type="priority" x="273.38" y="-467.68" incLanes="gneE8_0 gneE9_0" intLanes=":gneJ7_0_0 :gneJ7_2_0" shape="274.88,-467.73 274.88,-470.93 268.63,-470.93 268.63,-467.73 270.12,-466.23 273.32,-466.21">
        <request index="0" response="00" foes="10" cont="0"/>
        <request index="1" response="01" foes="01" cont="1"/>
    </junction>
    <junction id="gneJ8" type="priority" x="553.20" y="-467.68" incLanes="gneE11_0 gneE10_0" intLanes=":gneJ8_0_0 :gneJ8_2_0" shape="554.67,-467.71 554.73,-470.91 548.44,-470.93 548.44,-467.73 549.82,-466.24 553.01,-465.97">
        <request index="0" response="00" foes="10" cont="0"/>
        <request index="1" response="01" foes="01" cont="1"/>
    </junction>
    <junction id="gneJ9" type="unregulated" x="633.15" y="-466.35" incLanes="gneE12_0" intLanes="" shape="633.20,-469.60 633.15,-466.40"/>

    <junction id=":gneJ4_4_0" type="internal" x="270.46" y="-188.42" incLanes=":gneJ4_3_0 gneE3_0" intLanes=":gneJ4_1_0"/>
    <junction id=":gneJ7_2_0" type="internal" x="272.02" y="-467.73" incLanes=":gneJ7_1_0 gneE8_0" intLanes=":gneJ7_0_0"/>
    <junction id=":gneJ8_2_0" type="internal" x="551.85" y="-467.72" incLanes=":gneJ8_1_0 gneE11_0" intLanes=":gneJ8_0_0"/>

    <connection from="gneE0" to="gneE4" fromLane="0" toLane="0" via=":gneJ1_0_0" dir="r" state="M"/>
    <connection from="gneE0" to="gneE1" fromLane="0" toLane="0" via=":gneJ1_1_0" dir="s" state="M"/>
    <connection from="gneE1" to="gneE5" fromLane="0" toLane="0" via=":gneJ2_0_0" dir="r" state="M"/>
    <connection from="gneE10" to="gneE12" fromLane="0" toLane="0" via=":gneJ8_1_0" dir="l" state="m"/>
    <connection from="gneE11" to="gneE12" fromLane="0" toLane="0" via=":gneJ8_0_0" dir="s" state="M"/>
    <connection from="gneE13" to="gneE2" fromLane="0" toLane="0" via=":gneJ0_0_0" dir="r" state="M"/>
    <connection from="gneE13" to="gneE0" fromLane="0" toLane="0" via=":gneJ0_1_0" dir="s" state="M"/>
    <connection from="gneE2" to="gneE7" fromLane="0" toLane="0" via=":gneJ3_0_0" dir="s" state="M"/>
    <connection from="gneE2" to="gneE3" fromLane="0" toLane="0" via=":gneJ3_1_0" dir="l" state="M"/>
    <connection from="gneE3" to="gneE9" fromLane="0" toLane="0" via=":gneJ4_0_0" dir="r" state="M"/>
    <connection from="gneE3" to="gneE6" fromLane="0" toLane="0" via=":gneJ4_1_0" dir="s" state="M"/>
    <connection from="gneE4" to="gneE9" fromLane="0" toLane="0" via=":gneJ4_2_0" dir="s" state="m"/>
    <connection from="gneE4" to="gneE6" fromLane="0" toLane="0" via=":gneJ4_3_0" dir="l" state="m"/>
    <connection from="gneE5" to="gneE10" fromLane="0" toLane="0" via=":gneJ5_0_0" dir="s" state="m"/>
    <connection from="gneE6" to="gneE10" fromLane="0" toLane="0" via=":gneJ5_1_0" dir="r" state="M"/>
    <connection from="gneE7" to="gneE8" fromLane="0" toLane="0" via=":gneJ6_0_0" dir="l" state="M"/>
    <connection from="gneE8" to="gneE11" fromLane="0" toLane="0" via=":gneJ7_0_0" dir="s" state="M"/>
    <connection from="gneE9" to="gneE11" fromLane="0" toLane="0" via=":gneJ7_1_0" dir="l" state="m"/>

    <connection from=":gneJ0_0" to="gneE2" fromLane="0" toLane="0" dir="s" state="M"/>
    <connection from=":gneJ0_1" to="gneE0" fromLane="0" toLane="0" dir="s" state="M"/>
    <connection from=":gneJ1_0" to="gneE4" fromLane="0" toLane="0" dir="s" state="M"/>
    <connection from=":gneJ1_1" to="gneE1" fromLane="0" toLane="0" dir="s" state="M"/>
    <connection from=":gneJ2_0" to="gneE5" fromLane="0" toLane="0" dir="s" state="M"/>
    <connection from=":gneJ3_0" to="gneE7" fromLane="0" toLane="0" dir="s" state="M"/>
    <connection from=":gneJ3_1" to="gneE3" fromLane="0" toLane="0" dir="s" state="M"/>
    <connection from=":gneJ4_0" to="gneE9" fromLane="0" toLane="0" dir="s" state="M"/>
    <connection from=":gneJ4_1" to="gneE6" fromLane="0" toLane="0" dir="s" state="M"/>
    <connection from=":gneJ4_2" to="gneE9" fromLane="0" toLane="0" dir="s" state="M"/>
    <connection from=":gneJ4_3" to="gneE6" fromLane="0" toLane="0" via=":gneJ4_4_0" dir="s" state="m"/>
    <connection from=":gneJ4_4" to="gneE6" fromLane="0" toLane="0" dir="s" state="M"/>
    <connection from=":gneJ5_0" to="gneE10" fromLane="0" toLane="0" dir="s" state="M"/>
    <connection from=":gneJ5_1" to="gneE10" fromLane="0" toLane="0" dir="s" state="M"/>
    <connection from=":gneJ6_0" to="gneE8" fromLane="0" toLane="0" dir="s" state="M"/>
    <connection from=":gneJ7_0" to="gneE11" fromLane="0" toLane="0" dir="s" state="M"/>
    <connection from=":gneJ7_1" to="gneE11" fromLane="0" toLane="0" via=":gneJ7_2_0" dir="s" state="m"/>
    <connection from=":gneJ7_2" to="gneE11" fromLane="0" toLane="0" dir="s" state="M"/>
    <connection from=":gneJ8_0" to="gneE12" fromLane="0" toLane="0" dir="s" state="M"/>
    <connection from=":gneJ8_1" to="gneE12" fromLane="0" toLane="0" via=":gneJ8_2_0" dir="s" state="m"/>
    <connection from=":gneJ8_2" to="gneE12" fromLane="0" toLane="0" dir="s" state="M"/>

</net>
