<?xml version="1.0" encoding="UTF-8"?>

<!-- generated on 06/19/14 14:59:32 by SUMO netconvert Version 0.20.0
<?xml version="1.0" encoding="UTF-8"?>

<configuration xmlns:xsi="http://www.w3.org/2001/XMLSchema-instance" xsi:noNamespaceSchemaLocation="http://sumo-sim.org/xsd/netconvertConfiguration.xsd">

    <input>
        <node-files value="node.xml"/>
        <edge-files value="edge.xml"/>
        <connection-files value="connection.xml"/>
        <type-files value="type.xml"/>
    </input>

    <output>
        <output-file value="net.xml"/>
    </output>

    <processing>
        <no-turnarounds value="true"/>
    </processing>

</configuration>
-->

<net version="0.13" xmlns:xsi="http://www.w3.org/2001/XMLSchema-instance" xsi:noNamespaceSchemaLocation="http://sumo-sim.org/xsd/net_file.xsd">

    <location netOffset="-0.07,-0.97" convBoundary="0.00,0.00,2045.71,2094.78" origBoundary="0.07,0.97,2045.78,2095.75" projParameter="!"/>

    <edge id=":AegiNord_0" function="internal">
        <lane id=":AegiNord_0_0" index="0" speed="13.89" length="26.60" shape="209.35,1816.66 208.54,1808.75 208.24,1803.07 206.78,1797.93 202.50,1791.62"/>
    </edge>
    <edge id=":AegiNord_1" function="internal">
        <lane id=":AegiNord_1_0" index="0" speed="13.89" length="27.50" shape="212.52,1815.60 211.07,1806.88 210.08,1800.37 209.35,1794.57 208.68,1787.99"/>
        <lane id=":AegiNord_1_1" index="1" speed="13.89" length="27.50" shape="215.69,1814.53 214.28,1806.10 213.33,1799.82 212.62,1794.19 211.96,1787.68"/>
    </edge>
    <edge id=":AegiNord_3" function="internal">
        <lane id=":AegiNord_3_0" index="0" speed="13.89" length="8.11" shape="226.23,1805.43 224.56,1805.54 223.71,1806.61 223.68,1808.62 224.47,1811.58"/>
    </edge>
    <edge id=":AegiNord_4" function="internal">
        <lane id=":AegiNord_4_0" index="0" speed="13.89" length="24.93" shape="226.23,1805.43 220.17,1805.27 214.68,1807.00 209.76,1810.61 205.41,1816.11"/>
    </edge>
    <edge id=":AegiNord_5" function="internal">
        <lane id=":AegiNord_5_0" index="0" speed="13.89" length="28.24" shape="226.23,1805.43 219.60,1804.03 213.97,1801.83 208.54,1797.98 202.50,1791.62"/>
    </edge>
    <edge id=":AegiNord_6" function="internal">
        <lane id=":AegiNord_6_0" index="0" speed="13.89" length="6.26" shape="226.79,1802.17 220.74,1800.57"/>
    </edge>
    <edge id=":AegiNord_12" function="internal">
        <lane id=":AegiNord_12_0" index="0" speed="13.89" length="18.54" shape="220.74,1800.57 219.26,1800.18 213.73,1797.15 210.21,1793.09 208.68,1787.99"/>
    </edge>
    <edge id=":AegiNord_7" function="internal">
        <lane id=":AegiNord_7_0" index="0" speed="13.89" length="9.46" shape="221.82,1786.75 222.40,1788.82 223.70,1790.46 225.72,1791.66 228.47,1792.42"/>
    </edge>
    <edge id=":AegiNord_8" function="internal">
        <lane id=":AegiNord_8_0" index="0" speed="13.89" length="25.72" shape="218.53,1787.06 219.50,1794.86 220.71,1800.49 222.32,1805.53 224.47,1811.58"/>
        <lane id=":AegiNord_8_1" index="1" speed="13.89" length="25.72" shape="215.25,1787.37 216.25,1795.44 217.52,1801.31 219.17,1806.52 221.34,1812.63"/>
    </edge>
    <edge id=":AegiNord_10" function="internal">
        <lane id=":AegiNord_10_0" index="0" speed="13.89" length="20.29" shape="199.83,1812.59 202.40,1807.34 203.29,1802.45 202.48,1797.92 199.97,1793.74"/>
    </edge>
    <edge id=":AegiNord_11" function="internal">
        <lane id=":AegiNord_11_0" index="0" speed="13.89" length="27.58" shape="202.62,1814.35 205.95,1808.06 208.00,1801.73 208.88,1795.12 208.68,1787.99"/>
    </edge>
    <edge id=":AegiSued_0" function="internal">
        <lane id=":AegiSued_0_0" index="0" speed="13.89" length="23.32" shape="202.70,1724.69 202.34,1718.31 202.94,1713.22 204.93,1708.14 208.72,1701.75"/>
        <lane id=":AegiSued_0_1" index="1" speed="13.89" length="23.32" shape="205.99,1724.38 205.63,1718.20 206.19,1713.62 208.03,1709.22 211.49,1703.54"/>
    </edge>
    <edge id=":AegiSued_2" function="internal">
        <lane id=":AegiSued_2_0" index="0" speed="13.89" length="16.07" shape="222.57,1710.72 219.78,1714.25 217.49,1716.66 216.06,1719.29 215.85,1723.45"/>
        <lane id=":AegiSued_2_1" index="1" speed="13.89" length="16.07" shape="219.80,1708.92 216.67,1713.01 214.21,1715.86 212.73,1718.95 212.56,1723.76"/>
    </edge>
    <edge id=":AegiSued_4" function="internal">
        <lane id=":AegiSued_4_0" index="0" speed="13.89" length="7.01" shape="217.03,1707.13 213.12,1712.25 212.19,1713.08"/>
        <lane id=":AegiSued_4_1" index="1" speed="13.89" length="7.01" shape="214.26,1705.34 210.81,1709.89 210.35,1710.30"/>
    </edge>
    <edge id=":AegiSued_10" function="internal">
        <lane id=":AegiSued_10_0" index="0" speed="13.89" length="15.08" shape="212.19,1713.08 208.83,1716.11 204.16,1718.70 199.11,1720.02"/>
    </edge>
    <edge id=":AegiSued_11" function="internal">
        <lane id=":AegiSued_11_0" index="0" speed="13.89" length="13.55" shape="210.35,1710.30 207.07,1713.30 203.04,1715.59 198.73,1716.74"/>
    </edge>
    <edge id=":AegiSued_6" function="internal">
        <lane id=":AegiSued_6_0" index="0" speed="13.89" length="9.46" shape="196.87,1700.99 200.33,1701.33 203.00,1701.27 204.87,1700.82 205.95,1699.96"/>
    </edge>
    <edge id=":AegiSued_7" function="internal">
        <lane id=":AegiSued_7_0" index="0" speed="13.89" length="7.02" shape="197.27,1704.38 204.81,1706.47 205.60,1707.01"/>
        <lane id=":AegiSued_7_1" index="1" speed="13.89" length="7.02" shape="197.67,1707.77 203.68,1709.48 204.25,1709.89"/>
        <lane id=":AegiSued_7_2" index="2" speed="13.89" length="7.02" shape="198.07,1711.16 202.56,1712.50 203.07,1712.89"/>
    </edge>
    <edge id=":AegiSued_12" function="internal">
        <lane id=":AegiSued_12_0" index="0" speed="13.89" length="20.26" shape="205.60,1707.01 210.41,1710.34 214.09,1716.00 215.85,1723.45"/>
    </edge>
    <edge id=":AegiSued_13" function="internal">
        <lane id=":AegiSued_13_0" index="0" speed="13.89" length="16.89" shape="204.25,1709.89 208.17,1712.72 211.13,1717.48 212.56,1723.76"/>
    </edge>
    <edge id=":AegiSued_14" function="internal">
        <lane id=":AegiSued_14_0" index="0" speed="13.89" length="13.31" shape="203.07,1712.89 205.93,1715.10 208.17,1718.96 209.27,1724.07"/>
    </edge>
    <edge id=":AegiWest_0" function="internal">
        <lane id=":AegiWest_0_0" index="0" speed="13.89" length="10.20" shape="149.83,1733.83 148.06,1731.88 146.50,1730.45 145.13,1729.56 143.95,1729.20"/>
        <lane id=":AegiWest_0_1" index="1" speed="13.89" length="10.20" shape="152.36,1731.71 150.12,1729.29 148.03,1727.52 146.06,1726.39 144.23,1725.92"/>
        <lane id=":AegiWest_0_2" index="2" speed="13.89" length="10.20" shape="154.89,1729.60 152.18,1726.70 149.55,1724.58 146.99,1723.22 144.51,1722.63"/>
    </edge>
    <edge id=":AegiWest_3" function="internal">
        <lane id=":AegiWest_3_0" index="0" speed="13.89" length="11.89" shape="156.43,1725.64 152.83,1726.09 150.34,1726.27 147.85,1726.20 144.23,1725.92"/>
        <lane id=":AegiWest_3_1" index="1" speed="13.89" length="11.89" shape="156.00,1722.36 152.61,1722.79 150.27,1722.96 147.92,1722.90 144.51,1722.63"/>
    </edge>
    <edge id=":AltenbekenerMitte_0" function="internal">
        <lane id=":AltenbekenerMitte_0_0" index="0" speed="11.11" length="8.67" shape="1191.60,359.66 1191.20,357.01 1190.37,354.97 1189.10,353.55 1187.41,352.74"/>
    </edge>
    <edge id=":AltenbekenerMitte_1" function="internal">
        <lane id=":AltenbekenerMitte_1_0" index="0" speed="8.33" length="19.21" shape="1194.90,359.45 1194.45,353.11 1194.02,348.15 1193.60,344.05 1193.18,340.32"/>
    </edge>
    <edge id=":AltenbekenerMitte_2" function="internal">
        <lane id=":AltenbekenerMitte_2_0" index="0" speed="11.11" length="15.59" shape="1194.90,359.45 1195.14,354.44 1196.62,351.22 1199.33,349.78 1203.27,350.11"/>
    </edge>
    <edge id=":AltenbekenerMitte_3" function="internal">
        <lane id=":AltenbekenerMitte_3_0" index="0" speed="11.11" length="5.45" shape="1201.56,356.49 1199.99,356.29 1198.91,356.69 1198.31,357.67 1198.19,359.24"/>
    </edge>
    <edge id=":AltenbekenerMitte_4" function="internal">
        <lane id=":AltenbekenerMitte_4_0" index="0" speed="13.89" length="14.66" shape="1202.41,353.30 1198.21,352.17 1195.33,351.40 1192.45,350.65 1188.24,349.55"/>
    </edge>
    <edge id=":AltenbekenerMitte_5" function="internal">
        <lane id=":AltenbekenerMitte_5_0" index="0" speed="11.11" length="8.77" shape="1202.41,353.30 1198.84,351.68 1196.11,348.98 1195.66,348.08"/>
    </edge>
    <edge id=":AltenbekenerMitte_12" function="internal">
        <lane id=":AltenbekenerMitte_12_0" index="0" speed="11.11" length="8.21" shape="1195.66,348.08 1194.22,345.19 1193.18,340.32"/>
    </edge>
    <edge id=":AltenbekenerMitte_6" function="internal">
        <lane id=":AltenbekenerMitte_6_0" index="0" speed="11.11" length="9.09" shape="1199.73,339.56 1200.29,342.41 1201.20,344.59 1202.48,346.10 1204.13,346.93"/>
    </edge>
    <edge id=":AltenbekenerMitte_7" function="internal">
        <lane id=":AltenbekenerMitte_7_0" index="0" speed="8.33" length="19.38" shape="1196.46,339.94 1197.15,346.31 1197.62,351.33 1197.94,355.47 1198.19,359.24"/>
    </edge>
    <edge id=":AltenbekenerMitte_8" function="internal">
        <lane id=":AltenbekenerMitte_8_0" index="0" speed="11.11" length="15.99" shape="1196.46,339.94 1196.47,345.08 1195.10,348.40 1192.36,349.89 1188.24,349.55"/>
    </edge>
    <edge id=":AltenbekenerMitte_9" function="internal">
        <lane id=":AltenbekenerMitte_9_0" index="0" speed="11.11" length="5.52" shape="1189.90,343.16 1191.50,343.35 1192.58,342.93 1193.14,341.92 1193.18,340.32"/>
    </edge>
    <edge id=":AltenbekenerMitte_10" function="internal">
        <lane id=":AltenbekenerMitte_10_0" index="0" speed="13.89" length="14.69" shape="1189.07,346.35 1193.29,347.45 1196.18,348.21 1199.06,348.98 1203.27,350.11"/>
    </edge>
    <edge id=":AltenbekenerMitte_11" function="internal">
        <lane id=":AltenbekenerMitte_11_0" index="0" speed="11.11" length="8.94" shape="1189.07,346.35 1192.81,347.98 1195.57,350.68 1196.00,351.58"/>
    </edge>
    <edge id=":AltenbekenerMitte_13" function="internal">
        <lane id=":AltenbekenerMitte_13_0" index="0" speed="11.11" length="8.04" shape="1196.00,351.58 1197.37,354.43 1198.19,359.24"/>
    </edge>
    <edge id=":AltenbekenerOst_0" function="internal">
        <lane id=":AltenbekenerOst_0_0" index="0" speed="13.89" length="6.63" shape="1564.79,455.68 1563.43,455.36 1562.15,455.79 1560.94,456.95 1559.81,458.85"/>
    </edge>
    <edge id=":AltenbekenerOst_1" function="internal">
        <lane id=":AltenbekenerOst_1_0" index="0" speed="13.89" length="20.50" shape="1566.24,452.72 1560.80,450.17 1556.85,448.66 1552.78,447.48 1546.95,445.95"/>
    </edge>
    <edge id=":AltenbekenerOst_2" function="internal">
        <lane id=":AltenbekenerOst_2_0" index="0" speed="13.89" length="5.07" shape="1566.24,452.72 1562.68,450.30 1562.25,449.67"/>
    </edge>
    <edge id=":AltenbekenerOst_12" function="internal">
        <lane id=":AltenbekenerOst_12_0" index="0" speed="13.89" length="10.59" shape="1562.25,449.67 1560.70,447.34 1560.30,443.82 1561.48,439.74"/>
    </edge>
    <edge id=":AltenbekenerOst_3" function="internal">
        <lane id=":AltenbekenerOst_3_0" index="0" speed="13.89" length="8.05" shape="1564.49,441.11 1564.30,442.50 1565.02,443.92 1566.64,445.35 1569.15,446.79"/>
    </edge>
    <edge id=":AltenbekenerOst_4" function="internal">
        <lane id=":AltenbekenerOst_4_0" index="0" speed="13.89" length="18.38" shape="1564.49,441.11 1563.19,445.17 1562.19,450.00 1561.16,454.82 1559.81,458.85"/>
    </edge>
    <edge id=":AltenbekenerOst_5" function="internal">
        <lane id=":AltenbekenerOst_5_0" index="0" speed="13.89" length="3.32" shape="1564.49,441.11 1562.53,443.79"/>
    </edge>
    <edge id=":AltenbekenerOst_13" function="internal">
        <lane id=":AltenbekenerOst_13_0" index="0" speed="13.89" length="16.59" shape="1562.53,443.79 1561.94,444.60 1558.17,446.58 1553.17,447.03 1546.95,445.95"/>
    </edge>
    <edge id=":AltenbekenerOst_6" function="internal">
        <lane id=":AltenbekenerOst_6_0" index="0" speed="13.89" length="13.39" shape="1548.66,439.58 1553.77,440.75 1557.61,441.16 1560.18,440.83 1561.48,439.74"/>
    </edge>
    <edge id=":AltenbekenerOst_7" function="internal">
        <lane id=":AltenbekenerOst_7_0" index="0" speed="13.89" length="21.77" shape="1548.66,439.58 1554.68,441.18 1559.16,442.51 1563.52,444.17 1569.15,446.79"/>
    </edge>
    <edge id=":AltenbekenerOst_8" function="internal">
        <lane id=":AltenbekenerOst_8_0" index="0" speed="13.89" length="9.35" shape="1547.81,442.76 1555.11,445.53 1556.31,446.50"/>
    </edge>
    <edge id=":AltenbekenerOst_14" function="internal">
        <lane id=":AltenbekenerOst_14_0" index="0" speed="13.89" length="14.32" shape="1556.31,446.50 1559.55,449.14 1561.11,453.57 1559.81,458.85"/>
    </edge>
    <edge id=":AltenbekenerOst_9" function="internal">
        <lane id=":AltenbekenerOst_9_0" index="0" speed="13.89" length="5.24" shape="1547.92,453.12 1548.36,451.71 1548.21,450.58 1547.45,449.72 1546.09,449.14"/>
    </edge>
    <edge id=":AltenbekenerOst_10" function="internal">
        <lane id=":AltenbekenerOst_10_0" index="0" speed="13.89" length="18.26" shape="1550.89,454.55 1553.92,449.42 1556.89,445.78 1559.51,442.83 1561.48,439.74"/>
    </edge>
    <edge id=":AltenbekenerOst_11" function="internal">
        <lane id=":AltenbekenerOst_11_0" index="0" speed="13.89" length="8.18" shape="1553.86,455.98 1557.26,450.35 1558.43,449.26"/>
    </edge>
    <edge id=":AltenbekenerOst_15" function="internal">
        <lane id=":AltenbekenerOst_15_0" index="0" speed="13.89" length="11.93" shape="1558.43,449.26 1560.94,446.94 1564.90,445.75 1569.15,446.79"/>
    </edge>
    <edge id=":AltenbekenerWest_0" function="internal">
        <lane id=":AltenbekenerWest_0_0" index="0" speed="13.89" length="10.38" shape="973.13,296.84 969.31,296.03 966.40,295.83 964.39,296.25 963.29,297.28"/>
    </edge>
    <edge id=":AltenbekenerWest_1" function="internal">
        <lane id=":AltenbekenerWest_1_0" index="0" speed="13.89" length="25.19" shape="973.97,293.65 966.75,291.80 959.94,290.11 954.03,288.68 949.51,287.61"/>
    </edge>
    <edge id=":AltenbekenerWest_2" function="internal">
        <lane id=":AltenbekenerWest_2_0" index="0" speed="13.89" length="6.76" shape="973.97,293.65 967.97,291.34 967.71,291.12"/>
    </edge>
    <edge id=":AltenbekenerWest_14" function="internal">
        <lane id=":AltenbekenerWest_14_0" index="0" speed="13.89" length="13.70" shape="967.71,291.12 964.33,288.18 963.05,284.16 964.11,279.28"/>
    </edge>
    <edge id=":AltenbekenerWest_3" function="internal">
        <lane id=":AltenbekenerWest_3_0" index="0" speed="13.89" length="5.19" shape="973.77,283.36 973.33,284.74 973.49,285.85 974.26,286.69 975.63,287.26"/>
    </edge>
    <edge id=":AltenbekenerWest_4" function="internal">
        <lane id=":AltenbekenerWest_4_0" index="0" speed="13.89" length="17.45" shape="973.77,283.36 971.04,287.73 968.50,290.31 965.98,292.90 963.29,297.28"/>
        <lane id=":AltenbekenerWest_4_1" index="1" speed="13.89" length="17.45" shape="970.73,282.07 968.02,286.40 965.50,288.95 962.99,291.51 960.32,295.85"/>
    </edge>
    <edge id=":AltenbekenerWest_6" function="internal">
        <lane id=":AltenbekenerWest_6_0" index="0" speed="13.89" length="6.85" shape="967.68,280.79 964.71,284.93 963.23,285.86"/>
    </edge>
    <edge id=":AltenbekenerWest_15" function="internal">
        <lane id=":AltenbekenerWest_15_0" index="0" speed="13.89" length="14.29" shape="963.23,285.86 960.69,287.45 955.63,288.34 949.51,287.61"/>
    </edge>
    <edge id=":AltenbekenerWest_7" function="internal">
        <lane id=":AltenbekenerWest_7_0" index="0" speed="13.89" length="11.56" shape="951.00,281.18 954.61,281.68 957.49,281.31 959.65,280.08 961.08,277.99"/>
    </edge>
    <edge id=":AltenbekenerWest_8" function="internal">
        <lane id=":AltenbekenerWest_8_0" index="0" speed="13.89" length="25.58" shape="951.00,281.18 957.47,283.23 962.92,285.72 968.37,288.26 974.80,290.45"/>
    </edge>
    <edge id=":AltenbekenerWest_9" function="internal">
        <lane id=":AltenbekenerWest_9_0" index="0" speed="13.89" length="5.24" shape="950.26,284.40 955.24,286.04"/>
    </edge>
    <edge id=":AltenbekenerWest_16" function="internal">
        <lane id=":AltenbekenerWest_16_0" index="0" speed="13.89" length="12.75" shape="955.24,286.04 956.14,286.33 959.78,288.89 961.17,292.06 960.32,295.85"/>
    </edge>
    <edge id=":AltenbekenerWest_10" function="internal">
        <lane id=":AltenbekenerWest_10_0" index="0" speed="13.89" length="5.29" shape="951.40,291.56 951.85,290.13 951.69,288.99 950.91,288.16 949.51,287.61"/>
    </edge>
    <edge id=":AltenbekenerWest_11" function="internal">
        <lane id=":AltenbekenerWest_11_0" index="0" speed="13.89" length="16.85" shape="951.40,291.56 953.98,287.35 956.38,284.84 958.71,282.29 961.08,277.99"/>
        <lane id=":AltenbekenerWest_11_1" index="1" speed="13.89" length="16.85" shape="954.37,292.99 956.98,288.74 959.39,286.20 961.73,283.62 964.11,279.28"/>
    </edge>
    <edge id=":AltenbekenerWest_13" function="internal">
        <lane id=":AltenbekenerWest_13_0" index="0" speed="13.89" length="5.92" shape="957.35,294.42 959.81,291.33 961.60,290.52"/>
    </edge>
    <edge id=":AltenbekenerWest_17" function="internal">
        <lane id=":AltenbekenerWest_17_0" index="0" speed="13.89" length="13.49" shape="961.60,290.52 963.53,289.64 968.53,289.35 974.80,290.45"/>
    </edge>
    <edge id=":Geibel_0" function="internal">
        <lane id=":Geibel_0_0" index="0" speed="11.11" length="5.09" shape="761.42,723.76 760.07,723.33 758.91,723.42 757.94,724.02 757.16,725.14"/>
    </edge>
    <edge id=":Geibel_1" function="internal">
        <lane id=":Geibel_1_0" index="0" speed="8.33" length="19.75" shape="761.42,723.76 755.78,720.51 751.72,717.32 748.48,714.51 745.31,712.43"/>
    </edge>
    <edge id=":Geibel_2" function="internal">
        <lane id=":Geibel_2_0" index="0" speed="11.11" length="3.16" shape="762.83,720.78 760.10,719.19"/>
    </edge>
    <edge id=":Geibel_14" function="internal">
        <lane id=":Geibel_14_0" index="0" speed="11.11" length="18.08" shape="760.10,719.19 756.64,717.17 752.82,713.34 751.38,709.29 752.30,705.02"/>
    </edge>
    <edge id=":Geibel_3" function="internal">
        <lane id=":Geibel_3_0" index="0" speed="11.11" length="7.79" shape="764.19,710.75 763.16,713.33 762.83,715.37 763.19,716.86 764.25,717.80"/>
    </edge>
    <edge id=":Geibel_4" function="internal">
        <lane id=":Geibel_4_0" index="0" speed="13.89" length="16.00" shape="764.19,710.75 762.13,715.03 760.71,717.96 759.27,720.88 757.16,725.14"/>
        <lane id=":Geibel_4_1" index="1" speed="13.89" length="16.00" shape="761.22,709.32 759.16,713.59 757.74,716.51 756.31,719.42 754.20,723.67"/>
    </edge>
    <edge id=":Geibel_6" function="internal">
        <lane id=":Geibel_6_0" index="0" speed="11.11" length="5.01" shape="761.22,709.32 758.65,712.78 758.02,713.08"/>
    </edge>
    <edge id=":Geibel_15" function="internal">
        <lane id=":Geibel_15_0" index="0" speed="11.11" length="13.34" shape="758.02,713.08 755.14,714.45 750.70,714.33 745.31,712.43"/>
    </edge>
    <edge id=":Geibel_7" function="internal">
        <lane id=":Geibel_7_0" index="0" speed="11.11" length="5.00" shape="748.16,706.47 749.47,706.88 750.59,706.78 751.54,706.16 752.30,705.02"/>
    </edge>
    <edge id=":Geibel_8" function="internal">
        <lane id=":Geibel_8_0" index="0" speed="8.33" length="19.73" shape="748.16,706.47 753.78,709.73 757.84,712.92 761.08,715.72 764.25,717.80"/>
    </edge>
    <edge id=":Geibel_9" function="internal">
        <lane id=":Geibel_9_0" index="0" speed="11.11" length="4.32" shape="746.74,709.45 750.46,711.64"/>
    </edge>
    <edge id=":Geibel_16" function="internal">
        <lane id=":Geibel_16_0" index="0" speed="11.11" length="16.81" shape="750.46,711.64 752.91,713.07 756.70,716.89 758.12,720.91 757.16,725.14"/>
    </edge>
    <edge id=":Geibel_10" function="internal">
        <lane id=":Geibel_10_0" index="0" speed="11.11" length="10.10" shape="748.29,720.74 749.14,718.13 748.93,715.88 747.65,713.98 745.31,712.43"/>
    </edge>
    <edge id=":Geibel_11" function="internal">
        <lane id=":Geibel_11_0" index="0" speed="13.89" length="16.35" shape="748.29,720.74 749.94,716.25 750.33,712.90 750.69,709.54 752.30,705.02"/>
        <lane id=":Geibel_11_1" index="1" speed="13.89" length="16.35" shape="751.25,722.21 752.90,717.70 753.29,714.34 753.66,710.98 755.27,706.45"/>
    </edge>
    <edge id=":Geibel_13" function="internal">
        <lane id=":Geibel_13_0" index="0" speed="11.11" length="4.24" shape="751.25,722.21 753.65,718.72"/>
    </edge>
    <edge id=":Geibel_17" function="internal">
        <lane id=":Geibel_17_0" index="0" speed="11.11" length="11.36" shape="753.65,718.72 756.62,716.82 760.15,716.52 764.25,717.80"/>
    </edge>
    <edge id=":GeibelMitte_0" function="internal">
        <lane id=":GeibelMitte_0_0" index="0" speed="8.33" length="16.16" shape="1080.39,871.57 1075.92,869.90 1071.95,869.56 1068.47,870.56 1065.49,872.88"/>
    </edge>
    <edge id=":GeibelMitte_1" function="internal">
        <lane id=":GeibelMitte_1_0" index="0" speed="8.33" length="18.93" shape="1080.39,871.57 1076.30,870.13 1071.32,868.95 1066.33,867.79 1062.21,866.39"/>
    </edge>
    <edge id=":GeibelMitte_2" function="internal">
        <lane id=":GeibelMitte_2_0" index="0" speed="8.33" length="20.22" shape="1080.39,871.57 1075.46,868.22 1073.54,864.55 1074.63,860.55 1078.73,856.22"/>
    </edge>
    <edge id=":GeibelMitte_3" function="internal">
        <lane id=":GeibelMitte_3_0" index="0" speed="8.33" length="5.64" shape="1082.86,861.37 1081.71,862.58 1081.41,863.70 1081.94,864.72 1083.32,865.66"/>
    </edge>
    <edge id=":GeibelMitte_4" function="internal">
        <lane id=":GeibelMitte_4_0" index="0" speed="8.33" length="20.82" shape="1080.79,858.80 1075.58,863.12 1071.48,866.80 1068.21,870.00 1065.49,872.88"/>
    </edge>
    <edge id=":GeibelMitte_5" function="internal">
        <lane id=":GeibelMitte_5_0" index="0" speed="8.33" length="20.85" shape="1080.79,858.80 1074.81,863.13 1069.72,865.84 1065.52,866.93 1062.21,866.39"/>
    </edge>
    <edge id=":GeibelMitte_6" function="internal">
        <lane id=":GeibelMitte_6_0" index="0" speed="8.33" length="15.03" shape="1065.04,860.42 1067.89,861.10 1071.12,860.63 1074.73,859.00 1078.73,856.22"/>
    </edge>
    <edge id=":GeibelMitte_7" function="internal">
        <lane id=":GeibelMitte_7_0" index="0" speed="8.33" length="19.04" shape="1065.04,860.42 1069.17,861.83 1074.19,863.01 1079.21,864.21 1083.32,865.66"/>
    </edge>
    <edge id=":GeibelMitte_8" function="internal">
        <lane id=":GeibelMitte_8_0" index="0" speed="8.33" length="15.33" shape="1065.04,860.42 1068.16,862.67 1069.28,865.49 1068.39,868.90 1065.49,872.88"/>
    </edge>
    <edge id=":GeibelMitte_9" function="internal">
        <lane id=":GeibelMitte_9_0" index="0" speed="8.33" length="5.40" shape="1063.05,870.66 1063.93,869.38 1064.08,868.24 1063.51,867.24 1062.21,866.39"/>
    </edge>
    <edge id=":GeibelMitte_10" function="internal">
        <lane id=":GeibelMitte_10_0" index="0" speed="8.33" length="21.33" shape="1063.05,870.66 1066.38,867.29 1070.69,863.23 1075.11,859.28 1078.73,856.22"/>
    </edge>
    <edge id=":GeibelMitte_11" function="internal">
        <lane id=":GeibelMitte_11_0" index="0" speed="8.33" length="22.59" shape="1063.05,870.66 1067.86,866.46 1072.84,864.23 1078.00,863.96 1083.32,865.66"/>
    </edge>
    <edge id=":JordanNord_0" function="internal">
        <lane id=":JordanNord_0_0" index="0" speed="11.11" length="28.06" shape="1327.47,969.32 1320.86,973.76 1314.20,978.34 1308.67,982.71 1305.45,986.48"/>
    </edge>
    <edge id=":JordanNord_1" function="internal">
        <lane id=":JordanNord_1_0" index="0" speed="8.33" length="16.46" shape="1325.60,966.59 1315.14,972.96 1311.25,974.57"/>
    </edge>
    <edge id=":JordanNord_2" function="internal">
        <lane id=":JordanNord_2_0" index="0" speed="11.11" length="16.83" shape="1325.60,966.59 1311.03,975.02"/>
    </edge>
    <edge id=":JordanNord_12" function="internal">
        <lane id=":JordanNord_12_0" index="0" speed="8.33" length="19.75" shape="1311.25,974.57 1306.08,976.71 1298.43,977.87 1292.17,976.42"/>
    </edge>
    <edge id=":JordanNord_13" function="internal">
        <lane id=":JordanNord_13_0" index="0" speed="11.11" length="33.34" shape="1311.03,975.02 1310.35,975.41 1302.17,976.07 1301.07,968.57 1307.04,952.91"/>
    </edge>
    <edge id=":JordanNord_3" function="internal">
        <lane id=":JordanNord_3_0" index="0" speed="11.11" length="8.43" shape="1318.94,958.64 1317.90,961.33 1318.04,962.65 1319.36,962.59 1321.87,961.15"/>
    </edge>
    <edge id=":JordanNord_4" function="internal">
        <lane id=":JordanNord_4_0" index="0" speed="13.89" length="30.94" shape="1318.94,958.64 1315.31,966.16 1311.40,974.26 1307.88,981.51 1305.45,986.48"/>
    </edge>
    <edge id=":JordanNord_5" function="internal">
        <lane id=":JordanNord_5_0" index="0" speed="11.11" length="12.80" shape="1315.96,957.20 1309.95,967.79 1309.54,968.26"/>
    </edge>
    <edge id=":JordanNord_14" function="internal">
        <lane id=":JordanNord_14_0" index="0" speed="11.11" length="20.92" shape="1309.54,968.26 1303.99,974.52 1298.06,977.40 1292.17,976.42"/>
    </edge>
    <edge id=":JordanNord_6" function="internal">
        <lane id=":JordanNord_6_0" index="0" speed="11.11" length="21.77" shape="1295.10,970.51 1296.90,969.93 1299.48,966.80 1302.87,961.13 1307.04,952.91"/>
    </edge>
    <edge id=":JordanNord_7" function="internal">
        <lane id=":JordanNord_7_0" index="0" speed="8.33" length="29.29" shape="1295.10,970.51 1299.64,971.34 1305.61,970.06 1313.02,966.66 1321.87,961.15"/>
    </edge>
    <edge id=":JordanNord_8" function="internal">
        <lane id=":JordanNord_8_0" index="0" speed="11.11" length="6.08" shape="1293.64,973.46 1298.92,976.46"/>
    </edge>
    <edge id=":JordanNord_15" function="internal">
        <lane id=":JordanNord_15_0" index="0" speed="11.11" length="13.01" shape="1298.92,976.46 1299.88,977.00 1303.93,980.35 1305.78,983.51 1305.45,986.48"/>
    </edge>
    <edge id=":JordanNord_9" function="internal">
        <lane id=":JordanNord_9_0" index="0" speed="11.11" length="7.90" shape="1296.59,982.07 1296.83,980.67 1296.17,979.27 1294.62,977.85 1292.17,976.42"/>
    </edge>
    <edge id=":JordanNord_10" function="internal">
        <lane id=":JordanNord_10_0" index="0" speed="13.89" length="31.00" shape="1296.59,982.07 1299.79,974.37 1302.67,965.82 1305.12,958.10 1307.04,952.91"/>
    </edge>
    <edge id=":JordanNord_11" function="internal">
        <lane id=":JordanNord_11_0" index="0" speed="11.11" length="31.84" shape="1299.54,983.54 1304.33,976.66 1310.83,970.05 1317.27,964.59 1321.87,961.15"/>
    </edge>
    <edge id=":JordanSued_0" function="internal">
        <lane id=":JordanSued_0_0" index="0" speed="11.11" length="12.55" shape="1866.66,607.72 1863.30,606.33 1860.19,605.82 1857.34,606.19 1854.74,607.44"/>
    </edge>
    <edge id=":JordanSued_1" function="internal">
        <lane id=":JordanSued_1_0" index="0" speed="13.89" length="21.75" shape="1868.20,604.80 1862.38,601.76 1858.28,599.67 1854.29,597.69 1848.83,595.02"/>
        <lane id=":JordanSued_1_1" index="1" speed="13.89" length="21.75" shape="1869.73,601.87 1863.89,598.82 1859.76,596.72 1855.75,594.73 1850.28,592.05"/>
    </edge>
    <edge id=":JordanSued_3" function="internal">
        <lane id=":JordanSued_3_0" index="0" speed="13.89" length="4.81" shape="1869.73,601.87 1865.77,599.14"/>
    </edge>
    <edge id=":JordanSued_13" function="internal">
        <lane id=":JordanSued_13_0" index="0" speed="13.89" length="10.74" shape="1865.77,599.14 1863.86,596.19 1863.99,593.01 1866.18,589.61"/>
    </edge>
    <edge id=":JordanSued_4" function="internal">
        <lane id=":JordanSued_4_0" index="0" speed="13.89" length="5.95" shape="1871.05,594.07 1869.96,595.58 1869.63,596.90 1870.07,598.02 1871.27,598.95"/>
    </edge>
    <edge id=":JordanSued_5" function="internal">
        <lane id=":JordanSued_5_0" index="0" speed="11.11" length="21.15" shape="1871.05,594.07 1866.23,598.87 1861.91,602.46 1858.08,605.20 1854.74,607.44"/>
    </edge>
    <edge id=":JordanSued_6" function="internal">
        <lane id=":JordanSued_6_0" index="0" speed="13.89" length="4.31" shape="1868.61,591.84 1865.29,594.24 1865.08,594.28"/>
    </edge>
    <edge id=":JordanSued_14" function="internal">
        <lane id=":JordanSued_14_0" index="0" speed="13.89" length="15.36" shape="1865.08,594.28 1861.13,595.07 1856.12,594.34 1850.28,592.05"/>
    </edge>
    <edge id=":JordanSued_7" function="internal">
        <lane id=":JordanSued_7_0" index="0" speed="13.89" length="13.83" shape="1853.19,586.13 1858.19,588.40 1862.02,589.74 1864.68,590.14 1866.18,589.61"/>
    </edge>
    <edge id=":JordanSued_8" function="internal">
        <lane id=":JordanSued_8_0" index="0" speed="13.89" length="22.21" shape="1853.19,586.13 1859.18,589.66 1863.93,593.32 1867.84,596.59 1871.27,598.95"/>
    </edge>
    <edge id=":JordanSued_9" function="internal">
        <lane id=":JordanSued_9_0" index="0" speed="11.11" length="8.70" shape="1851.74,589.09 1858.43,593.43 1858.80,594.04"/>
    </edge>
    <edge id=":JordanSued_15" function="internal">
        <lane id=":JordanSued_15_0" index="0" speed="11.11" length="16.48" shape="1858.80,594.04 1861.16,597.93 1859.93,602.61 1854.74,607.44"/>
    </edge>
    <edge id=":JordanSued_10" function="internal">