<?xml version="1.0" encoding="UTF-8"?>

<!-- generated on 20.07.2016 10:47:11 by Netedit Version dev-SVN-r18894
<?xml version="1.0" encoding="UTF-8"?>

<configuration xmlns:xsi="http://www.w3.org/2001/XMLSchema-instance" xsi:noNamespaceSchemaLocation="http://sumo.dlr.de/xsd/netedit.exeConfiguration.xsd">

    <input>
        <sumo-net-file value="C:\Users\tang.IVS\Dropbox\PhD\Implementation\Test%20network\SUMO\FourIntersectionsEightODs.net.xml"/>
    </input>

    <output>
        <output-file value="C:\Users\tang.IVS\Dropbox\PhD\Implementation\Test%20network\SUMO\twoLanesFourIntersectionsEightODs.net.xml"/>
    </output>

    <processing>
        <no-turnarounds value="true"/>
        <offset.disable-normalization value="true"/>
    </processing>

</configuration>
-->

<net version="0.13" xmlns:xsi="http://www.w3.org/2001/XMLSchema-instance" xsi:noNamespaceSchemaLocation="http://sumo.dlr.de/xsd/net_file.xsd">

    <location netOffset="0.00,0.00" convBoundary="-37.06,-25.30,116.31,117.37" origBoundary="-10000000000.00,-10000000000.00,10000000000.00,10000000000.00" projParameter="!"/>

    <edge id=":gneJ1_0" function="internal">
        <lane id=":gneJ1_0_0" index="0" speed="13.89" length="5.00" shape="5.15,83.02 4.96,81.66 4.37,80.69 3.41,80.11 2.05,79.92"/>
    </edge>
    <edge id=":gneJ1_1" function="internal">
        <lane id=":gneJ1_1_0" index="0" speed="13.89" length="16.10" shape="5.15,83.02 5.15,78.24 5.15,74.97 5.15,71.70 5.15,66.92"/>
        <lane id=":gneJ1_1_1" index="1" speed="13.89" length="16.10" shape="8.45,83.02 8.45,78.24 8.45,74.97 8.45,71.70 8.45,66.92"/>
    </edge>
    <edge id=":gneJ1_3" function="internal">
        <lane id=":gneJ1_3_0" index="0" speed="13.89" length="6.41" shape="8.45,83.02 9.06,78.78 10.15,76.95"/>
    </edge>
    <edge id=":gneJ1_14" function="internal">
        <lane id=":gneJ1_14_0" index="0" speed="13.89" length="9.23" shape="10.15,76.95 10.88,75.74 13.91,73.93 18.15,73.32"/>
    </edge>
    <edge id=":gneJ1_4" function="internal">
        <lane id=":gneJ1_4_0" index="0" speed="13.89" length="5.00" shape="18.15,79.92 16.79,80.11 15.82,80.69 15.24,81.66 15.05,83.02"/>
    </edge>
    <edge id=":gneJ1_5" function="internal">
        <lane id=":gneJ1_5_0" index="0" speed="13.89" length="16.10" shape="18.15,76.62 13.37,76.62 10.10,76.62 6.83,76.62 2.05,76.62"/>
    </edge>
    <edge id=":gneJ1_6" function="internal">
        <lane id=":gneJ1_6_0" index="0" speed="13.89" length="6.41" shape="18.15,76.62 13.91,76.01 12.08,74.92"/>
    </edge>
    <edge id=":gneJ1_15" function="internal">
        <lane id=":gneJ1_15_0" index="0" speed="13.89" length="9.23" shape="12.08,74.92 10.88,74.19 9.06,71.16 8.45,66.92"/>
    </edge>
    <edge id=":gneJ1_7" function="internal">
        <lane id=":gneJ1_7_0" index="0" speed="13.89" length="5.00" shape="15.05,66.92 15.24,68.28 15.83,69.24 16.79,69.83 18.15,70.02"/>
    </edge>
    <edge id=":gneJ1_8" function="internal">
        <lane id=":gneJ1_8_0" index="0" speed="13.89" length="16.10" shape="15.05,66.92 15.05,71.70 15.05,74.97 15.05,78.24 15.05,83.02"/>
        <lane id=":gneJ1_8_1" index="1" speed="13.89" length="16.10" shape="11.75,66.92 11.75,71.70 11.75,74.97 11.75,78.24 11.75,83.02"/>
    </edge>
    <edge id=":gneJ1_10" function="internal">
        <lane id=":gneJ1_10_0" index="0" speed="13.89" length="6.41" shape="11.75,66.92 11.14,71.16 10.05,72.99"/>
    </edge>
    <edge id=":gneJ1_16" function="internal">
        <lane id=":gneJ1_16_0" index="0" speed="13.89" length="9.23" shape="10.05,72.99 9.32,74.19 6.29,76.01 2.05,76.62"/>
    </edge>
    <edge id=":gneJ1_11" function="internal">
        <lane id=":gneJ1_11_0" index="0" speed="13.89" length="5.00" shape="2.05,70.02 3.41,69.83 4.37,69.25 4.96,68.28 5.15,66.92"/>
    </edge>
    <edge id=":gneJ1_12" function="internal">
        <lane id=":gneJ1_12_0" index="0" speed="13.89" length="16.10" shape="2.05,73.32 6.83,73.32 10.10,73.32 13.37,73.32 18.15,73.32"/>
    </edge>
    <edge id=":gneJ1_13" function="internal">
        <lane id=":gneJ1_13_0" index="0" speed="13.89" length="6.41" shape="2.05,73.32 6.29,73.93 8.12,75.02"/>
    </edge>
    <edge id=":gneJ1_17" function="internal">
        <lane id=":gneJ1_17_0" index="0" speed="13.89" length="9.23" shape="8.12,75.02 9.32,75.74 11.14,78.78 11.75,83.02"/>
    </edge>
    <edge id=":gneJ3_0" function="internal">
        <lane id=":gneJ3_0_0" index="0" speed="13.89" length="5.00" shape="70.15,83.02 69.96,81.66 69.38,80.70 68.41,80.11 67.05,79.92"/>
    </edge>
    <edge id=":gneJ3_1" function="internal">
        <lane id=":gneJ3_1_0" index="0" speed="13.89" length="16.10" shape="70.15,83.02 70.15,78.24 70.15,74.97 70.15,71.70 70.15,66.92"/>
        <lane id=":gneJ3_1_1" index="1" speed="13.89" length="16.10" shape="73.45,83.02 73.45,78.24 73.45,74.97 73.45,71.70 73.45,66.92"/>
    </edge>
    <edge id=":gneJ3_3" function="internal">
        <lane id=":gneJ3_3_0" index="0" speed="13.89" length="6.41" shape="73.45,83.02 74.06,78.78 75.15,76.95"/>
    </edge>
    <edge id=":gneJ3_14" function="internal">
        <lane id=":gneJ3_14_0" index="0" speed="13.89" length="9.23" shape="75.15,76.95 75.88,75.75 78.91,73.93 83.15,73.32"/>
    </edge>
    <edge id=":gneJ3_4" function="internal">
        <lane id=":gneJ3_4_0" index="0" speed="13.89" length="5.00" shape="83.15,79.92 81.79,80.11 80.83,80.69 80.24,81.66 80.05,83.02"/>
    </edge>
    <edge id=":gneJ3_5" function="internal">
        <lane id=":gneJ3_5_0" index="0" speed="13.89" length="16.10" shape="83.15,76.62 78.37,76.62 75.10,76.62 71.83,76.62 67.05,76.62"/>
    </edge>
    <edge id=":gneJ3_6" function="internal">
        <lane id=":gneJ3_6_0" index="0" speed="13.89" length="6.41" shape="83.15,76.62 78.91,76.01 77.08,74.92"/>
    </edge>
    <edge id=":gneJ3_15" function="internal">
        <lane id=":gneJ3_15_0" index="0" speed="13.89" length="9.23" shape="77.08,74.92 75.88,74.19 74.06,71.16 73.45,66.92"/>
    </edge>
    <edge id=":gneJ3_7" function="internal">
        <lane id=":gneJ3_7_0" index="0" speed="13.89" length="5.00" shape="80.05,66.92 80.24,68.28 80.83,69.24 81.79,69.83 83.15,70.02"/>
    </edge>
    <edge id=":gneJ3_8" function="internal">
        <lane id=":gneJ3_8_0" index="0" speed="13.89" length="16.10" shape="80.05,66.92 80.05,71.70 80.05,74.97 80.05,78.24 80.05,83.02"/>
        <lane id=":gneJ3_8_1" index="1" speed="13.89" length="16.10" shape="76.75,66.92 76.75,71.70 76.75,74.97 76.75,78.24 76.75,83.02"/>
    </edge>
    <edge id=":gneJ3_10" function="internal">
        <lane id=":gneJ3_10_0" index="0" speed="13.89" length="6.41" shape="76.75,66.92 76.14,71.16 75.05,72.99"/>
    </edge>
    <edge id=":gneJ3_16" function="internal">
        <lane id=":gneJ3_16_0" index="0" speed="13.89" length="9.23" shape="75.05,72.99 74.33,74.19 71.29,76.01 67.05,76.62"/>
    </edge>
    <edge id=":gneJ3_11" function="internal">
        <lane id=":gneJ3_11_0" index="0" speed="13.89" length="5.00" shape="67.05,70.02 68.41,69.83 69.38,69.24 69.96,68.28 70.15,66.92"/>
    </edge>
    <edge id=":gneJ3_12" function="internal">
        <lane id=":gneJ3_12_0" index="0" speed="13.89" length="16.10" shape="67.05,73.32 71.83,73.32 75.10,73.32 78.37,73.32 83.15,73.32"/>
    </edge>
    <edge id=":gneJ3_13" function="internal">
        <lane id=":gneJ3_13_0" index="0" speed="13.89" length="6.41" shape="67.05,73.32 71.29,73.93 73.12,75.02"/>
    </edge>
    <edge id=":gneJ3_17" function="internal">
        <lane id=":gneJ3_17_0" index="0" speed="13.89" length="9.23" shape="73.12,75.02 74.33,75.75 76.14,78.78 76.75,83.02"/>
    </edge>
    <edge id=":gneJ6_0" function="internal">
        <lane id=":gneJ6_0_0" index="0" speed="13.89" length="5.01" shape="70.15,20.84 69.96,19.48 69.37,18.51 68.40,17.93 67.04,17.75"/>
    </edge>
    <edge id=":gneJ6_1" function="internal">
        <lane id=":gneJ6_1_0" index="0" speed="13.89" length="16.14" shape="70.15,20.84 70.15,16.05 70.15,12.77 70.15,9.49 70.15,4.70"/>
        <lane id=":gneJ6_1_1" index="1" speed="13.89" length="16.14" shape="73.45,20.84 73.45,16.05 73.45,12.77 73.45,9.49 73.45,4.70"/>
    </edge>
    <edge id=":gneJ6_3" function="internal">
        <lane id=":gneJ6_3_0" index="0" speed="13.89" length="6.44" shape="73.45,20.84 74.06,16.58 75.15,14.75"/>
    </edge>
    <edge id=":gneJ6_14" function="internal">
        <lane id=":gneJ6_14_0" index="0" speed="13.89" length="9.24" shape="75.15,14.75 75.88,13.53 78.91,11.71 83.15,11.10"/>
    </edge>
    <edge id=":gneJ6_4" function="internal">
        <lane id=":gneJ6_4_0" index="0" speed="13.89" length="5.03" shape="83.15,17.70 81.79,17.90 80.83,18.48 80.24,19.47 80.05,20.84"/>
    </edge>
    <edge id=":gneJ6_5" function="internal">
        <lane id=":gneJ6_5_0" index="0" speed="13.89" length="16.13" shape="83.15,14.40 78.36,14.40 75.09,14.41 71.81,14.42 67.02,14.45"/>
    </edge>
    <edge id=":gneJ6_6" function="internal">
        <lane id=":gneJ6_6_0" index="0" speed="13.89" length="6.41" shape="83.15,14.40 78.91,13.79 77.09,12.70"/>
    </edge>
    <edge id=":gneJ6_15" function="internal">
        <lane id=":gneJ6_15_0" index="0" speed="13.89" length="9.24" shape="77.09,12.70 75.88,11.98 74.06,8.94 73.45,4.70"/>
    </edge>
    <edge id=":gneJ6_7" function="internal">
        <lane id=":gneJ6_7_0" index="0" speed="13.89" length="5.00" shape="80.05,4.70 80.24,6.06 80.83,7.02 81.79,7.61 83.15,7.80"/>
    </edge>
    <edge id=":gneJ6_8" function="internal">
        <lane id=":gneJ6_8_0" index="0" speed="13.89" length="16.14" shape="80.05,4.70 80.05,9.49 80.05,12.77 80.05,16.05 80.05,20.84"/>
        <lane id=":gneJ6_8_1" index="1" speed="13.89" length="16.14" shape="76.75,4.70 76.75,9.49 76.75,12.77 76.75,16.05 76.75,20.84"/>
    </edge>
    <edge id=":gneJ6_10" function="internal">
        <lane id=":gneJ6_10_0" index="0" speed="13.89" length="6.41" shape="76.75,4.70 76.14,8.94 75.05,10.76"/>
    </edge>
    <edge id=":gneJ6_16" function="internal">
        <lane id=":gneJ6_16_0" index="0" speed="13.89" length="9.28" shape="75.05,10.76 74.32,11.98 71.28,13.82 67.02,14.45"/>
    </edge>
    <edge id=":gneJ6_11" function="internal">
        <lane id=":gneJ6_11_0" index="0" speed="13.89" length="5.09" shape="66.98,7.85 68.37,7.64 69.36,7.05 69.95,6.07 70.15,4.70"/>
    </edge>
    <edge id=":gneJ6_12" function="internal">
        <lane id=":gneJ6_12_0" index="0" speed="13.89" length="16.15" shape="67.00,11.15 71.80,11.12 75.08,11.11 78.36,11.10 83.15,11.10"/>
    </edge>
    <edge id=":gneJ6_13" function="internal">
        <lane id=":gneJ6_13_0" index="0" speed="13.89" length="6.42" shape="67.00,11.15 71.27,11.73 73.09,12.81"/>
    </edge>
    <edge id=":gneJ6_17" function="internal">
        <lane id=":gneJ6_17_0" index="0" speed="13.89" length="9.27" shape="73.09,12.81 74.31,13.54 76.14,16.58 76.75,20.84"/>
    </edge>
    <edge id=":gneJ7_0" function="internal">
        <lane id=":gneJ7_0_0" index="0" speed="13.89" length="5.00" shape="5.15,21.19 4.96,19.83 4.37,18.86 3.41,18.28 2.05,18.09"/>
    </edge>
    <edge id=":gneJ7_1" function="internal">
        <lane id=":gneJ7_1_0" index="0" speed="13.89" length="16.14" shape="5.15,21.19 5.15,16.40 5.15,13.12 5.15,9.84 5.15,5.05"/>
        <lane id=":gneJ7_1_1" index="1" speed="13.89" length="16.14" shape="8.45,21.19 8.45,16.40 8.45,13.12 8.45,9.84 8.45,5.05"/>
    </edge>
    <edge id=":gneJ7_3" function="internal">
        <lane id=":gneJ7_3_0" index="0" speed="13.89" length="6.41" shape="8.45,21.19 9.06,16.95 10.15,15.13"/>
    </edge>
    <edge id=":gneJ7_14" function="internal">
        <lane id=":gneJ7_14_0" index="0" speed="13.89" length="9.28" shape="10.15,15.13 10.88,13.91 13.92,12.07 18.18,11.44"/>
    </edge>
    <edge id=":gneJ7_4" function="internal">
        <lane id=":gneJ7_4_0" index="0" speed="13.89" length="5.09" shape="18.22,18.04 16.83,18.25 15.84,18.84 15.25,19.82 15.05,21.19"/>
    </edge>
    <edge id=":gneJ7_5" function="internal">
        <lane id=":gneJ7_5_0" index="0" speed="13.89" length="16.15" shape="18.20,14.74 13.40,14.77 10.12,14.78 6.84,14.79 2.05,14.79"/>
    </edge>
    <edge id=":gneJ7_6" function="internal">
        <lane id=":gneJ7_6_0" index="0" speed="13.89" length="6.42" shape="18.20,14.74 13.93,14.16 12.11,13.08"/>
    </edge>
    <edge id=":gneJ7_15" function="internal">
        <lane id=":gneJ7_15_0" index="0" speed="13.89" length="9.27" shape="12.11,13.08 10.89,12.35 9.06,9.31 8.45,5.05"/>
    </edge>
    <edge id=":gneJ7_7" function="internal">
        <lane id=":gneJ7_7_0" index="0" speed="13.89" length="5.01" shape="15.05,5.05 15.24,6.41 15.83,7.38 16.80,7.96 18.16,8.14"/>
    </edge>
    <edge id=":gneJ7_8" function="internal">
        <lane id=":gneJ7_8_0" index="0" speed="13.89" length="16.14" shape="15.05,5.05 15.05,9.84 15.05,13.12 15.05,16.40 15.05,21.19"/>
        <lane id=":gneJ7_8_1" index="1" speed="13.89" length="16.14" shape="11.75,5.05 11.75,9.84 11.75,13.12 11.75,16.40 11.75,21.19"/>
    </edge>
    <edge id=":gneJ7_10" function="internal">
        <lane id=":gneJ7_10_0" index="0" speed="13.89" length="6.44" shape="11.75,5.05 11.14,9.31 10.05,11.14"/>
    </edge>
    <edge id=":gneJ7_16" function="internal">
        <lane id=":gneJ7_16_0" index="0" speed="13.89" length="9.24" shape="10.05,11.14 9.32,12.36 6.29,14.18 2.05,14.79"/>
    </edge>
    <edge id=":gneJ7_11" function="internal">
        <lane id=":gneJ7_11_0" index="0" speed="13.89" length="5.03" shape="2.05,8.19 3.41,7.99 4.37,7.41 4.96,6.42 5.15,5.05"/>
    </edge>
    <edge id=":gneJ7_12" function="internal">
        <lane id=":gneJ7_12_0" index="0" speed="13.89" length="16.13" shape="2.05,11.49 6.84,11.49 10.11,11.48 13.39,11.47 18.18,11.44"/>
    </edge>
    <edge id=":gneJ7_13" function="internal">
        <lane id=":gneJ7_13_0" index="0" speed="13.89" length="6.41" shape="2.05,11.49 6.29,12.10 8.11,13.19"/>
    </edge>
    <edge id=":gneJ7_17" function="internal">
        <lane id=":gneJ7_17_0" index="0" speed="13.89" length="9.24" shape="8.11,13.19 9.32,13.91 11.14,16.95 11.75,21.19"/>
    </edge>

    <edge id="gneE0" from="gneJ0" to="gneJ1" priority="1">
        <lane id="gneE0_0" index="0" speed="13.89" length="39.11" shape="-37.06,70.02 2.05,70.02"/>
        <lane id="gneE0_1" index="1" speed="13.89" length="39.11" shape="-37.06,73.32 2.05,73.32"/>
    </edge>
    <edge id="gneE1" from="gneJ1" to="gneJ0" priority="1">
        <lane id="gneE1_0" index="0" speed="13.89" length="39.11" shape="2.05,79.92 -37.06,79.92"/>
        <lane id="gneE1_1" index="1" speed="13.89" length="39.11" shape="2.05,76.62 -37.06,76.62"/>
    </edge>
    <edge id="gneE10" from="gneJ3" to="gneJ6" priority="1">
        <lane id="gneE10_0" index="0" speed="13.89" length="46.08" shape="70.15,66.92 70.15,20.84"/>
        <lane id="gneE10_1" index="1" speed="13.89" length="46.08" shape="73.45,66.92 73.45,20.84"/>
    </edge>
    <edge id="gneE11" from="gneJ6" to="gneJ3" priority="1">
        <lane id="gneE11_0" index="0" speed="13.89" length="46.08" shape="80.05,20.84 80.05,66.92"/>
        <lane id="gneE11_1" index="1" speed="13.89" length="46.08" shape="76.75,20.84 76.75,66.92"/>
    </edge>
    <edge id="gneE12" from="gneJ6" to="gneJ7" priority="1">
        <lane id="gneE12_0" index="0" speed="13.89" length="48.82" shape="67.04,17.75 18.22,18.04"/>
        <lane id="gneE12_1" index="1" speed="13.89" length="48.82" shape="67.02,14.45 18.20,14.74"/>
    </edge>
    <edge id="gneE13" from="gneJ7" to="gneJ6" priority="1">
        <lane id="gneE13_0" index="0" speed="13.89" length="48.82" shape="18.16,8.14 66.98,7.85"/>
        <lane id="gneE13_1" index="1" speed="13.89" length="48.82" shape="18.18,11.44 67.00,11.15"/>
    </edge>
    <edge id="gneE14" from="gneJ7" to="gneJ1" priority="1">
        <lane id="gneE14_0" index="0" speed="13.89" length="45.73" shape="15.05,21.19 15.05,66.92"/>
        <lane id="gneE14_1" index="1" speed="13.89" length="45.73" shape="11.75,21.19 11.75,66.92"/>
    </edge>
    <edge id="gneE15" from="gneJ1" to="gneJ7" priority="1">
        <lane id="gneE15_0" index="0" speed="13.89" length="45.73" shape="5.15,66.92 5.15,21.19"/>
        <lane id="gneE15_1" index="1" speed="13.89" length="45.73" shape="8.45,66.92 8.45,21.19"/>
    </edge>
    <edge id="gneE16" from="gneJ7" to="gneJ8" priority="1">
        <lane id="gneE16_0" index="0" speed="13.89" length="39.11" shape="2.05,18.09 -37.06,18.09"/>
        <lane id="gneE16_1" index="1" speed="13.89" length="39.11" shape="2.05,14.79 -37.06,14.79"/>
    </edge>
    <edge id="gneE17" from="gneJ8" to="gneJ7" priority="1">
        <lane id="gneE17_0" index="0" speed="13.89" length="39.11" shape="-37.06,8.19 2.05,8.19"/>
        <lane id="gneE17_1" index="1" speed="13.89" length="39.11" shape="-37.06,11.49 2.05,11.49"/>
    </edge>
    <edge id="gneE18" from="gneJ7" to="gneJ9" priority="1">
        <lane id="gneE18_0" index="0" speed="13.89" length="27.57" shape="5.15,5.05 5.15,-22.52"/>
        <lane id="gneE18_1" index="1" speed="13.89" length="27.57" shape="8.45,5.05 8.45,-22.52"/>
    </edge>
    <edge id="gneE19" from="gneJ9" to="gneJ7" priority="1">
        <lane id="gneE19_0" index="0" speed="13.89" length="27.57" shape="15.05,-22.52 15.05,5.05"/>
        <lane id="gneE19_1" index="1" speed="13.89" length="27.57" shape="11.75,-22.52 11.75,5.05"/>
    </edge>
    <edge id="gneE2" from="gneJ2" to="gneJ1" priority="1">
        <lane id="gneE2_0" index="0" speed="13.89" length="31.58" shape="5.15,114.60 5.15,83.02"/>
        <lane id="gneE2_1" index="1" speed="13.89" length="31.58" shape="8.45,114.60 8.45,83.02"/>
    </edge>
    <edge id="gneE20" from="gneJ6" to="gneJ10" priority="1">
        <lane id="gneE20_0" index="0" speed="13.89" length="30.00" shape="70.15,4.70 70.15,-25.30"/>
        <lane id="gneE20_1" index="1" speed="13.89" length="30.00" shape="73.45,4.70 73.45,-25.30"/>
    </edge>
    <edge id="gneE21" from="gneJ10" to="gneJ6" priority="1">
        <lane id="gneE21_0" index="0" speed="13.89" length="30.00" shape="80.05,-25.30 80.05,4.70"/>
        <lane id="gneE21_1" index="1" speed="13.89" length="30.00" shape="76.75,-25.30 76.75,4.70"/>
    </edge>
    <edge id="gneE22" from="gneJ6" to="gneJ11" priority="1">
        <lane id="gneE22_0" index="0" speed="13.89" length="32.37" shape="83.15,7.80 115.52,7.80"/>
        <lane id="gneE22_1" index="1" speed="13.89" length="32.37" shape="83.15,11.10 115.52,11.10"/>
    </edge>
    <edge id="gneE23" from="gneJ11" to="gneJ6" priority="1">
        <lane id="gneE23_0" index="0" speed="13.89" length="32.37" shape="115.52,17.70 83.15,17.70"/>
        <lane id="gneE23_1" index="1" speed="13.89" length="32.37" shape="115.52,14.40 83.15,14.40"/>
    </edge>
    <edge id="gneE3" from="gneJ1" to="gneJ2" priority="1">
        <lane id="gneE3_0" index="0" speed="13.89" length="31.58" shape="15.05,83.02 15.05,114.60"/>
        <lane id="gneE3_1" index="1" speed="13.89" length="31.58" shape="11.75,83.02 11.75,114.60"/>
    </edge>
    <edge id="gneE4" from="gneJ1" to="gneJ3" priority="1">
        <lane id="gneE4_0" index="0" speed="13.89" length="48.90" shape="18.15,70.02 67.05,70.02"/>
        <lane id="gneE4_1" index="1" speed="13.89" length="48.90" shape="18.15,73.32 67.05,73.32"/>
    </edge>
    <edge id="gneE5" from="gneJ3" to="gneJ1" priority="1">
        <lane id="gneE5_0" index="0" speed="13.89" length="48.90" shape="67.05,79.92 18.15,79.92"/>
        <lane id="gneE5_1" index="1" speed="13.89" length="48.90" shape="67.05,76.62 18.15,76.62"/>
    </edge>
    <edge id="gneE6" from="gneJ4" to="gneJ3" priority="1">
        <lane id="gneE6_0" index="0" speed="13.89" length="34.35" shape="70.15,117.37 70.15,83.02"/>
        <lane id="gneE6_1" index="1" speed="13.89" length="34.35" shape="73.45,117.37 73.45,83.02"/>
    </edge>
    <edge id="gneE7" from="gneJ3" to="gneJ4" priority="1">
        <lane id="gneE7_0" index="0" speed="13.89" length="34.35" shape="80.05,83.02 80.05,117.37"/>
        <lane id="gneE7_1" index="1" speed="13.89" length="34.35" shape="76.75,83.02 76.75,117.37"/>
    </edge>
    <edge id="gneE8" from="gneJ3" to="gneJ5" priority="1">
        <lane id="gneE8_0" index="0" speed="13.89" length="33.16" shape="83.15,70.02 116.31,70.02"/>
        <lane id="gneE8_1" index="1" speed="13.89" length="33.16" shape="83.15,73.32 116.31,73.32"/>
    </edge>
    <edge id="gneE9" from="gneJ5" to="gneJ3" priority="1">
        <lane id="gneE9_0" index="0" speed="13.89" length="33.16" shape="116.31,79.92 83.15,79.92"/>
        <lane id="gneE9_1" index="1" speed="13.89" length="33.16" shape="116.31,76.62 83.15,76.62"/>
    </edge>

    <tlLogic id="gneJ1" type="static" programID="0" offset="0">
        <phase duration="31" state="GGGgrrrGGGgrrr"/>
        <phase duration="4" state="yyygrrryyygrrr"/>
        <phase duration="6" state="rrrGrrrrrrGrrr"/>
        <phase duration="4" state="rrryrrrrrryrrr"/>
        <phase duration="31" state="rrrrGGgrrrrGGg"/>
        <phase duration="4" state="rrrryygrrrryyg"/>
        <phase duration="6" state="rrrrrrGrrrrrrG"/>
        <phase duration="4" state="rrrrrryrrrrrry"/>
    </tlLogic>
    <tlLogic id="gneJ3" type="static" programID="0" offset="0">
        <phase duration="31" state="GGGgrrrGGGgrrr"/>
        <phase duration="4" state="yyygrrryyygrrr"/>
        <phase duration="6" state="rrrGrrrrrrGrrr"/>
        <phase duration="4" state="rrryrrrrrryrrr"/>
        <phase duration="31" state="rrrrGGgrrrrGGg"/>
        <phase duration="4" state="rrrryygrrrryyg"/>
        <phase duration="6" state="rrrrrrGrrrrrrG"/>
        <phase duration="4" state="rrrrrryrrrrrry"/>
    </tlLogic>
    <tlLogic id="gneJ6" type="static" programID="0" offset="0">
        <phase duration="31" state="GGGgrrrGGGgrrr"/>
        <phase duration="4" state="yyygrrryyygrrr"/>
        <phase duration="6" state="rrrGrrrrrrGrrr"/>
        <phase duration="4" state="rrryrrrrrryrrr"/>
        <phase duration="31" state="rrrrGGgrrrrGGg"/>
        <phase duration="4" state="rrrryygrrrryyg"/>
        <phase duration="6" state="rrrrrrGrrrrrrG"/>
        <phase duration="4" state="rrrrrryrrrrrry"/>
    </tlLogic>
    <tlLogic id="gneJ7" type="static" programID="0" offset="0">
        <phase duration="31" state="GGGgrrrGGGgrrr"/>
        <phase duration="4" state="yyygrrryyygrrr"/>
        <phase duration="6" state="rrrGrrrrrrGrrr"/>
        <phase duration="4" state="rrryrrrrrryrrr"/>
        <phase duration="31" state="rrrrGGgrrrrGGg"/>
        <phase duration="4" state="rrrryygrrrryyg"/>
        <phase duration="6" state="rrrrrrGrrrrrrG"/>
        <phase duration="4" state="rrrrrryrrrrrry"/>
    </tlLogic>

    <junction id="gneJ0" type="dead_end" x="-37.06" y="74.97" incLanes="gneE1_0 gneE1_1" intLanes="" shape="-37.06,74.92 -37.06,68.42 -37.06,81.52 -37.06,75.02"/>
    <junction id="gneJ1" type="traffic_light" x="10.10" y="74.97" incLanes="gneE2_0 gneE2_1 gneE5_0 gneE5_1 gneE14_0 gneE14_1 gneE0_0 gneE0_1" intLanes=":gneJ1_0_0 :gneJ1_1_0 :gneJ1_1_1 :gneJ1_14_0 :gneJ1_4_0 :gneJ1_5_0 :gneJ1_15_0 :gneJ1_7_0 :gneJ1_8_0 :gneJ1_8_1 :gneJ1_16_0 :gneJ1_11_0 :gneJ1_12_0 :gneJ1_17_0" shape="3.55,83.02 16.65,83.02 18.15,81.52 18.15,68.42 16.65,66.92 3.55,66.92 2.05,68.42 2.05,81.52">
        <request index="0" response="00000000000000" foes="00010000100000" cont="0"/>
        <request index="1" response="00000000000000" foes="11110001100000" cont="0"/>
        <request index="2" response="00000000000000" foes="11110001100000" cont="0"/>
        <request index="3" response="00001110000000" foes="11001111100000" cont="1"/>
        <request index="4" response="00001100000000" foes="10001100000000" cont="0"/>
        <request index="5" response="00011100001111" foes="10011100001111" cont="0"/>
        <request index="6" response="01111100001110" foes="01111100001110" cont="1"/>
        <request index="7" response="00000000000000" foes="01000000001000" cont="0"/>
        <request index="8" response="00000000000000" foes="11000001111000" cont="0"/>
        <request index="9" response="00000000000000" foes="11000001111000" cont="0"/>
        <request index="10" response="00000000000111" foes="11000001100111" cont="1"/>
        <request index="11" response="00000000000110" foes="00000001000110" cont="0"/>
        <request index="12" response="00011110001110" foes="00011111001110" cont="0"/>
        <request index="13" response="00011100111110" foes="00011100111110" cont="1"/>
    </junction>
    <junction id="gneJ10" type="dead_end" x="75.10" y="-25.30" incLanes="gneE20_0 gneE20_1" intLanes="" shape="75.15,-25.30 81.65,-25.30 68.55,-25.30 75.05,-25.30"/>
    <junction id="gneJ11" type="dead_end" x="115.52" y="12.75" incLanes="gneE22_0 gneE22_1" intLanes="" shape="115.52,12.80 115.52,19.30 115.52,6.20 115.52,12.70"/>
    <junction id="gneJ2" type="dead_end" x="10.10" y="114.60" incLanes="gneE3_0 gneE3_1" intLanes="" shape="10.05,114.60 3.55,114.60 16.65,114.60 10.15,114.60"/>
    <junction id="gneJ3" type="traffic_light" x="75.10" y="74.97" incLanes="gneE6_0 gneE6_1 gneE9_0 gneE9_1 gneE11_0 gneE11_1 gneE4_0 gneE4_1" intLanes=":gneJ3_0_0 :gneJ3_1_0 :gneJ3_1_1 :gneJ3_14_0 :gneJ3_4_0 :gneJ3_5_0 :gneJ3_15_0 :gneJ3_7_0 :gneJ3_8_0 :gneJ3_8_1 :gneJ3_16_0 :gneJ3_11_0 :gneJ3_12_0 :gneJ3_17_0" shape="68.55,83.02 81.65,83.02 83.15,81.52 83.15,68.42 81.65,66.92 68.55,66.92 67.05,68.42 67.05,81.52">
        <request index="0" response="00000000000000" foes="00010000100000" cont="0"/>
        <request index="1" response="00000000000000" foes="11110001100000" cont="0"/>
        <request index="2" response="00000000000000" foes="11110001100000" cont="0"/>
        <request index="3" response="00001110000000" foes="11001111100000" cont="1"/>
        <request index="4" response="00001100000000" foes="10001100000000" cont="0"/>
        <request index="5" response="00011100001111" foes="10011100001111" cont="0"/>
        <request index="6" response="01111100001110" foes="01111100001110" cont="1"/>
        <request index="7" response="00000000000000" foes="01000000001000" cont="0"/>
        <request index="8" response="00000000000000" foes="11000001111000" cont="0"/>
        <request index="9" response="00000000000000" foes="11000001111000" cont="0"/>
        <request index="10" response="00000000000111" foes="11000001100111" cont="1"/>
        <request index="11" response="00000000000110" foes="00000001000110" cont="0"/>
        <request index="12" response="00011110001110" foes="00011111001110" cont="0"/>
        <request index="13" response="00011100111110" foes="00011100111110" cont="1"/>
    </junction>
    <junction id="gneJ4" type="dead_end" x="75.10" y="117.37" incLanes="gneE7_0 gneE7_1" intLanes="" shape="75.05,117.37 68.55,117.37 81.65,117.37 75.15,117.37"/>
    <junction id="gneJ5" type="dead_end" x="116.31" y="74.97" incLanes="gneE8_0 gneE8_1" intLanes="" shape="116.31,75.02 116.31,81.52 116.31,68.42 116.31,74.92"/>
    <junction id="gneJ6" type="traffic_light" x="75.10" y="12.75" incLanes="gneE10_0 gneE10_1 gneE23_0 gneE23_1 gneE21_0 gneE21_1 gneE13_0 gneE13_1" intLanes=":gneJ6_0_0 :gneJ6_1_0 :gneJ6_1_1 :gneJ6_14_0 :gneJ6_4_0 :gneJ6_5_0 :gneJ6_15_0 :gneJ6_7_0 :gneJ6_8_0 :gneJ6_8_1 :gneJ6_16_0 :gneJ6_11_0 :gneJ6_12_0 :gneJ6_17_0" shape="68.55,20.84 81.65,20.84 83.15,19.30 83.15,6.20 81.65,4.70 68.55,4.70 66.97,6.25 67.05,19.35">
        <request index="0" response="00000000000000" foes="00010000100000" cont="0"/>
        <request index="1" response="00000000000000" foes="11110001100000" cont="0"/>
        <request index="2" response="00000000000000" foes="11110001100000" cont="0"/>
        <request index="3" response="00001110000000" foes="11001111100000" cont="1"/>
        <request index="4" response="00001100000000" foes="10001100000000" cont="0"/>
        <request index="5" response="00011100001111" foes="10011100001111" cont="0"/>
        <request index="6" response="01111100001110" foes="01111100001110" cont="1"/>
        <request index="7" response="00000000000000" foes="01000000001000" cont="0"/>
        <request index="8" response="00000000000000" foes="11000001111000" cont="0"/>
        <request index="9" response="00000000000000" foes="11000001111000" cont="0"/>
        <request index="10" response="00000000000111" foes="11000001100111" cont="1"/>
        <request index="11" response="00000000000110" foes="00000001000110" cont="0"/>
        <request index="12" response="00011110001110" foes="00011111001110" cont="0"/>
        <request index="13" response="00011100111110" foes="00011100111110" cont="1"/>
    </junction>
    <junction id="gneJ7" type="traffic_light" x="10.10" y="13.14" incLanes="gneE15_0 gneE15_1 gneE12_0 gneE12_1 gneE19_0 gneE19_1 gneE17_0 gneE17_1" intLanes=":gneJ7_0_0 :gneJ7_1_0 :gneJ7_1_1 :gneJ7_14_0 :gneJ7_4_0 :gneJ7_5_0 :gneJ7_15_0 :gneJ7_7_0 :gneJ7_8_0 :gneJ7_8_1 :gneJ7_16_0 :gneJ7_11_0 :gneJ7_12_0 :gneJ7_17_0" shape="3.55,21.19 16.65,21.19 18.23,19.64 18.15,6.54 16.65,5.05 3.55,5.05 2.05,6.59 2.05,19.69">
        <request index="0" response="00000000000000" foes="00010000100000" cont="0"/>
        <request index="1" response="00000000000000" foes="11110001100000" cont="0"/>
        <request index="2" response="00000000000000" foes="11110001100000" cont="0"/>
        <request index="3" response="00001110000000" foes="11001111100000" cont="1"/>
        <request index="4" response="00001100000000" foes="10001100000000" cont="0"/>
        <request index="5" response="00011100001111" foes="10011100001111" cont="0"/>